<?xml version="1.0" encoding="UTF-8"?>

<!-- generated on Mon 29 Jun 2020 02:34:56 PM CEST by Eclipse SUMO netedit Version 1.6.0
<configuration xmlns:xsi="http://www.w3.org/2001/XMLSchema-instance" xsi:noNamespaceSchemaLocation="http://sumo.dlr.de/xsd/netconvertConfiguration.xsd">

    <input>
        <sumo-net-file value="osm.net.xml"/>
    </input>

    <output>
        <output-file value="osm.net.xml"/>
        <output.street-names value="true"/>
    </output>

    <processing>
        <geometry.min-radius.fix.railways value="false"/>
        <geometry.max-grade.fix value="false"/>
        <offset.disable-normalization value="true"/>
        <lefthand value="false"/>
    </processing>

    <junctions>
        <no-turnarounds value="true"/>
        <junctions.corner-detail value="5"/>
        <junctions.limit-turn-speed value="5.5"/>
        <rectangular-lane-cut value="false"/>
    </junctions>

    <pedestrian>
        <walkingareas value="false"/>
    </pedestrian>

    <report>
        <aggregate-warnings value="5"/>
    </report>

</configuration>
-->

<net version="1.6" junctionCornerDetail="5" limitTurnSpeed="5.50" xmlns:xsi="http://www.w3.org/2001/XMLSchema-instance" xsi:noNamespaceSchemaLocation="http://sumo.dlr.de/xsd/net_file.xsd">

    <location netOffset="-567346.73,-7032137.89" convBoundary="85.67,29.82,3586.91,3387.42" origBoundary="9.830552,63.383475,10.654323,63.595923" projParameter="+proj=utm +zone=32 +ellps=WGS84 +datum=WGS84 +units=m +no_defs"/>

    <type id="highway.bridleway" priority="1" numLanes="1" speed="2.78" allow="pedestrian" oneway="1" width="2.00"/>
    <type id="highway.bus_guideway" priority="1" numLanes="1" speed="27.78" allow="bus" oneway="1"/>
    <type id="highway.cycleway" priority="1" numLanes="1" speed="8.33" allow="bicycle" oneway="0" width="1.00"/>
    <type id="highway.footway" priority="1" numLanes="1" speed="2.78" allow="pedestrian" oneway="1" width="2.00"/>
    <type id="highway.ford" priority="1" numLanes="1" speed="2.78" allow="army" oneway="0"/>
    <type id="highway.living_street" priority="2" numLanes="1" speed="2.78" disallow="tram rail_urban rail rail_electric rail_fast ship" oneway="0"/>
    <type id="highway.motorway" priority="14" numLanes="2" speed="39.44" allow="private emergency authority army vip passenger hov taxi bus coach delivery truck trailer motorcycle evehicle custom1 custom2" oneway="1"/>
    <type id="highway.motorway_link" priority="9" numLanes="1" speed="22.22" allow="private emergency authority army vip passenger hov taxi bus coach delivery truck trailer motorcycle evehicle custom1 custom2" oneway="1"/>
    <type id="highway.path" priority="1" numLanes="1" speed="2.78" allow="pedestrian bicycle" oneway="1" width="2.00"/>
    <type id="highway.pedestrian" priority="1" numLanes="1" speed="2.78" allow="pedestrian" oneway="1" width="2.00"/>
    <type id="highway.primary" priority="12" numLanes="2" speed="27.78" disallow="tram rail_urban rail rail_electric rail_fast ship" oneway="0"/>
    <type id="highway.primary_link" priority="7" numLanes="1" speed="22.22" disallow="tram rail_urban rail rail_electric rail_fast ship" oneway="0"/>
    <type id="highway.raceway" priority="15" numLanes="2" speed="83.33" allow="vip" oneway="0"/>
    <type id="highway.residential" priority="3" numLanes="1" speed="13.89" disallow="tram rail_urban rail rail_electric rail_fast ship" oneway="0"/>
    <type id="highway.secondary" priority="11" numLanes="1" speed="27.78" disallow="tram rail_urban rail rail_electric rail_fast ship" oneway="0"/>
    <type id="highway.secondary_link" priority="6" numLanes="1" speed="22.22" disallow="tram rail_urban rail rail_electric rail_fast ship" oneway="0"/>
    <type id="highway.service" priority="1" numLanes="1" speed="5.56" allow="pedestrian delivery bicycle" oneway="0"/>
    <type id="highway.stairs" priority="1" numLanes="1" speed="1.39" allow="pedestrian" oneway="1" width="2.00"/>
    <type id="highway.step" priority="1" numLanes="1" speed="1.39" allow="pedestrian" oneway="1" width="2.00"/>
    <type id="highway.steps" priority="1" numLanes="1" speed="1.39" allow="pedestrian" oneway="1" width="2.00"/>
    <type id="highway.tertiary" priority="10" numLanes="1" speed="22.22" disallow="tram rail_urban rail rail_electric rail_fast ship" oneway="0"/>
    <type id="highway.tertiary_link" priority="5" numLanes="1" speed="22.22" disallow="tram rail_urban rail rail_electric rail_fast ship" oneway="0"/>
    <type id="highway.track" priority="1" numLanes="1" speed="5.56" disallow="tram rail_urban rail rail_electric rail_fast ship" oneway="0"/>
    <type id="highway.trunk" priority="13" numLanes="2" speed="27.78" disallow="pedestrian bicycle tram rail_urban rail rail_electric rail_fast ship" oneway="0"/>
    <type id="highway.trunk_link" priority="8" numLanes="1" speed="22.22" disallow="pedestrian bicycle tram rail_urban rail rail_electric rail_fast ship" oneway="0"/>
    <type id="highway.unclassified" priority="4" numLanes="1" speed="13.89" disallow="tram rail_urban rail rail_electric rail_fast ship" oneway="0"/>
    <type id="highway.unsurfaced" priority="1" numLanes="1" speed="8.33" disallow="tram rail_urban rail rail_electric rail_fast ship" oneway="0"/>
    <type id="railway.highspeed" priority="21" numLanes="1" speed="69.44" allow="rail_fast" oneway="1"/>
    <type id="railway.light_rail" priority="19" numLanes="1" speed="27.78" allow="rail_urban" oneway="1"/>
    <type id="railway.preserved" priority="16" numLanes="1" speed="27.78" allow="rail" oneway="1"/>
    <type id="railway.rail" priority="20" numLanes="1" speed="44.44" allow="rail" oneway="1"/>
    <type id="railway.subway" priority="18" numLanes="1" speed="27.78" allow="rail_urban" oneway="1"/>
    <type id="railway.tram" priority="17" numLanes="1" speed="13.89" allow="tram" oneway="1"/>

    <edge id=":1000011235_0" function="internal">
        <lane id=":1000011235_0_0" index="0" disallow="tram rail_urban rail rail_electric rail_fast ship" speed="13.89" length="0.73" shape="2809.30,3265.72 2809.14,3265.58 2809.03,3265.48 2808.92,3265.37 2808.78,3265.20"/>
    </edge>
    <edge id=":1000011235_1" function="internal">
        <lane id=":1000011235_1_0" index="0" disallow="tram rail_urban rail rail_electric rail_fast ship" speed="13.89" length="0.24" shape="2811.20,3263.11 2811.25,3263.16 2811.28,3263.20 2811.32,3263.23 2811.37,3263.28"/>
    </edge>
    <edge id=":100446018_0" function="internal">
        <lane id=":100446018_0_0" index="0" disallow="tram rail_urban rail rail_electric rail_fast ship" speed="13.89" length="0.58" shape="2050.62,2334.68 2050.45,2334.67 2050.34,2334.66 2050.22,2334.64 2050.05,2334.61"/>
    </edge>
    <edge id=":100446018_1" function="internal">
        <lane id=":100446018_1_0" index="0" disallow="tram rail_urban rail rail_electric rail_fast ship" speed="13.89" length="0.19" shape="2050.63,2331.46 2050.69,2331.47 2050.72,2331.48 2050.76,2331.48 2050.82,2331.48"/>
    </edge>
    <edge id=":100446030_0" function="internal">
        <lane id=":100446030_0_0" index="0" disallow="tram rail_urban rail rail_electric rail_fast ship" speed="13.89" length="0.30" shape="2022.37,2266.30 2022.30,2266.58"/>
        <lane id=":100446030_0_1" index="1" disallow="tram rail_urban rail rail_electric rail_fast ship" speed="13.89" length="0.30" shape="2019.26,2265.55 2019.19,2265.85"/>
    </edge>
    <edge id=":100446036_0" function="internal">
        <lane id=":100446036_0_0" index="0" disallow="tram rail_urban rail rail_electric rail_fast ship" speed="11.11" length="0.16" shape="1902.60,2244.26 1902.56,2244.41"/>
    </edge>
    <edge id=":100446036_1" function="internal">
        <lane id=":100446036_1_0" index="0" disallow="tram rail_urban rail rail_electric rail_fast ship" speed="11.11" length="0.28" shape="1899.48,2243.52 1899.57,2243.25"/>
    </edge>
    <edge id=":10137943_0" function="internal">
        <lane id=":10137943_0_0" index="0" disallow="tram rail_urban rail rail_electric rail_fast ship" speed="27.78" length="12.35" shape="3341.06,2896.97 3339.47,2899.70 3338.46,2902.08 3337.33,2904.63 3335.34,2907.88"/>
    </edge>
    <edge id=":10137943_1" function="internal">
        <lane id=":10137943_1_0" index="0" disallow="tram rail_urban rail rail_electric rail_fast ship" speed="18.83" length="11.71" shape="3329.45,2902.44 3332.29,2900.83 3334.50,2899.40 3336.44,2897.67 3338.43,2895.14"/>
    </edge>
    <edge id=":10137943_2" function="internal">
        <lane id=":10137943_2_0" index="0" disallow="tram rail_urban rail rail_electric rail_fast ship" speed="5.65" length="12.20" shape="3329.45,2902.44 3333.30,2900.58 3335.13,2900.56 3334.94,2902.38 3332.72,2906.04"/>
    </edge>
    <edge id=":1024844204_0" function="internal">
        <lane id=":1024844204_0_0" index="0" disallow="tram rail_urban rail rail_electric rail_fast ship" speed="11.11" length="0.34" shape="2184.88,2501.98 2184.81,2502.31"/>
    </edge>
    <edge id=":1024844204_1" function="internal">
        <lane id=":1024844204_1_0" index="0" disallow="tram rail_urban rail rail_electric rail_fast ship" speed="11.11" length="0.26" shape="2178.56,2500.91 2178.61,2500.68"/>
        <lane id=":1024844204_1_1" index="1" disallow="tram rail_urban rail rail_electric rail_fast ship" speed="11.11" length="0.26" shape="2181.68,2501.61 2181.75,2501.33"/>
    </edge>
    <edge id=":1030148947_0" function="internal">
        <lane id=":1030148947_0_0" index="0" disallow="tram rail_urban rail rail_electric rail_fast ship" speed="8.33" length="0.11" shape="2810.91,2164.95 2810.84,2164.85"/>
    </edge>
    <edge id=":1030148947_1" function="internal">
        <lane id=":1030148947_1_0" index="0" disallow="tram rail_urban rail rail_electric rail_fast ship" speed="8.33" length="0.34" shape="2813.36,2162.88 2813.56,2163.16"/>
    </edge>
    <edge id=":1030350223_0" function="internal">
        <lane id=":1030350223_0_0" index="0" disallow="tram rail_urban rail rail_electric rail_fast ship" speed="7.74" length="1.99" shape="2034.85,2195.22 2033.39,2193.87"/>
    </edge>
    <edge id=":1036355242_0" function="internal">
        <lane id=":1036355242_0_0" index="0" disallow="tram rail_urban rail rail_electric rail_fast ship" speed="11.11" length="0.33" shape="2367.94,2563.67 2367.90,2563.99"/>
    </edge>
    <edge id=":1037676610_0" function="internal">
        <lane id=":1037676610_0_0" index="0" disallow="tram rail_urban rail rail_electric rail_fast ship" speed="13.89" length="0.21" shape="2657.78,2567.46 2657.76,2567.40 2657.74,2567.36 2657.73,2567.32 2657.70,2567.26"/>
    </edge>
    <edge id=":1037676610_1" function="internal">
        <lane id=":1037676610_1_0" index="0" disallow="tram rail_urban rail rail_electric rail_fast ship" speed="13.89" length="0.64" shape="2660.57,2565.85 2660.66,2566.03 2660.71,2566.15 2660.76,2566.27 2660.82,2566.45"/>
    </edge>
    <edge id=":105197_0" function="internal">
        <lane id=":105197_0_0" index="0" disallow="tram rail_urban rail rail_electric rail_fast ship" speed="13.89" length="0.24" shape="3147.90,2561.05 3148.12,2561.24"/>
        <lane id=":105197_0_1" index="1" disallow="tram rail_urban rail rail_electric rail_fast ship" speed="13.89" length="0.24" shape="3145.88,2563.54 3146.02,2563.65"/>
    </edge>
    <edge id=":105367_0" function="internal">
        <lane id=":105367_0_0" index="0" disallow="tram rail_urban rail rail_electric rail_fast ship" speed="13.89" length="0.28" shape="1123.24,1405.76 1123.08,1405.99"/>
    </edge>
    <edge id=":105367_1" function="internal">
        <lane id=":105367_1_0" index="0" disallow="tram rail_urban rail rail_electric rail_fast ship" speed="13.89" length="0.14" shape="1120.46,1404.16 1120.54,1404.04"/>
    </edge>
    <edge id=":105374_0" function="internal">
        <lane id=":105374_0_0" index="0" disallow="tram rail_urban rail rail_electric rail_fast ship" speed="8.33" length="0.10" shape="2217.85,722.35 2217.92,722.38"/>
    </edge>
    <edge id=":105374_1" function="internal">
        <lane id=":105374_1_0" index="0" disallow="tram rail_urban rail rail_electric rail_fast ship" speed="8.33" length="0.10" shape="2219.16,719.44 2219.23,719.47"/>
    </edge>
    <edge id=":105520_0" function="internal">
        <lane id=":105520_0_0" index="0" disallow="tram rail_urban rail rail_electric rail_fast ship" speed="13.89" length="16.41" shape="680.32,2058.36 664.69,2063.35"/>
    </edge>
    <edge id=":105520_1" function="internal">
        <lane id=":105520_1_0" index="0" disallow="tram rail_urban rail rail_electric rail_fast ship" speed="11.11" length="5.74" shape="680.32,2058.36 677.09,2058.86 674.65,2058.50"/>
    </edge>
    <edge id=":105520_6" function="internal">
        <lane id=":105520_6_0" index="0" disallow="tram rail_urban rail rail_electric rail_fast ship" speed="11.11" length="11.04" shape="674.65,2058.50 673.39,2058.31 669.24,2056.71 664.63,2054.06"/>
    </edge>
    <edge id=":105520_2" function="internal">
        <lane id=":105520_2_0" index="0" disallow="tram rail_urban rail rail_electric rail_fast ship" speed="11.07" length="13.89" shape="666.38,2051.38 670.33,2053.69 673.80,2055.12 676.79,2055.66 679.29,2055.33"/>
    </edge>
    <edge id=":105520_3" function="internal">
        <lane id=":105520_3_0" index="0" disallow="tram rail_urban rail rail_electric rail_fast ship" speed="7.38" length="18.23" shape="666.38,2051.38 670.73,2055.05 671.90,2058.27 669.88,2061.04 664.69,2063.35"/>
    </edge>
    <edge id=":105520_4" function="internal">
        <lane id=":105520_4_0" index="0" disallow="tram rail_urban rail rail_electric rail_fast ship" speed="5.52" length="9.50" shape="663.74,2060.30 666.45,2059.09 667.50,2057.65 666.89,2055.97 664.63,2054.06"/>
    </edge>
    <edge id=":105520_5" function="internal">
        <lane id=":105520_5_0" index="0" disallow="tram rail_urban rail rail_electric rail_fast ship" speed="13.89" length="16.32" shape="663.74,2060.30 679.29,2055.33"/>
    </edge>
    <edge id=":1073498465_0" function="internal">
        <lane id=":1073498465_0_0" index="0" disallow="tram rail_urban rail rail_electric rail_fast ship" speed="6.44" length="5.82" shape="875.08,1902.83 874.37,1901.10 873.52,1899.82 872.56,1899.00 871.46,1898.63"/>
    </edge>
    <edge id=":1073498465_1" function="internal">
        <lane id=":1073498465_1_0" index="0" disallow="tram rail_urban rail rail_electric rail_fast ship" speed="13.30" length="5.91" shape="877.22,1897.76 875.56,1898.34 874.39,1898.68 873.19,1898.78 871.46,1898.63"/>
    </edge>
    <edge id=":1074801729_0" function="internal">
        <lane id=":1074801729_0_0" index="0" disallow="tram rail_urban rail rail_electric rail_fast ship" speed="11.87" length="8.58" shape="2917.10,2383.66 2914.70,2383.17 2913.00,2383.40 2911.29,2384.10 2908.89,2385.00"/>
    </edge>
    <edge id=":1074801729_1" function="internal">
        <lane id=":1074801729_1_0" index="0" disallow="tram rail_urban rail rail_electric rail_fast ship" speed="12.54" length="9.61" shape="2917.10,2383.66 2914.42,2382.61 2912.53,2381.76 2910.63,2381.43 2907.94,2381.94"/>
    </edge>
    <edge id=":1074801729_2" function="internal">
        <lane id=":1074801729_2_0" index="0" disallow="tram rail_urban rail rail_electric rail_fast ship" speed="9.91" length="8.98" shape="2917.10,2383.66 2914.40,2382.57 2912.22,2381.17 2910.54,2379.47 2909.37,2377.45"/>
        <lane id=":1074801729_2_1" index="1" disallow="tram rail_urban rail rail_electric rail_fast ship" speed="8.68" length="8.98" shape="2918.07,2380.62 2916.02,2379.79 2914.36,2378.73 2913.08,2377.45 2912.20,2375.94"/>
    </edge>
    <edge id=":1074801773_0" function="internal">
        <lane id=":1074801773_0_0" index="0" disallow="tram rail_urban rail rail_electric rail_fast ship" speed="13.89" length="10.93" shape="2928.80,2387.48 2926.03,2386.13 2924.14,2385.10 2922.17,2384.42 2919.17,2384.15"/>
        <lane id=":1074801773_0_1" index="1" disallow="tram rail_urban rail rail_electric rail_fast ship" speed="13.89" length="10.93" shape="2930.04,2384.53 2926.94,2383.05 2924.80,2381.94 2922.58,2381.23 2919.23,2380.95"/>
    </edge>
    <edge id=":1074801773_2" function="internal">
        <lane id=":1074801773_2_0" index="0" disallow="tram rail_urban rail rail_electric rail_fast ship" speed="10.01" length="10.24" shape="2929.59,2380.10 2927.72,2381.91 2925.37,2383.19 2922.52,2383.94 2919.17,2384.15"/>
        <lane id=":1074801773_2_1" index="1" disallow="tram rail_urban rail rail_electric rail_fast ship" speed="11.70" length="10.24" shape="2927.35,2377.97 2925.20,2379.49 2923.59,2380.42 2921.82,2380.86 2919.23,2380.95"/>
    </edge>
    <edge id=":1076668328_0" function="internal">
        <lane id=":1076668328_0_0" index="0" disallow="tram rail_urban rail rail_electric rail_fast ship" speed="6.33" length="4.87" shape="927.08,1693.78 926.73,1694.99 926.14,1696.01 925.29,1696.82 924.19,1697.43"/>
    </edge>
    <edge id=":1076668328_1" function="internal">
        <lane id=":1076668328_1_0" index="0" disallow="tram rail_urban rail rail_electric rail_fast ship" speed="4.04" length="1.62" shape="922.96,1694.48 923.32,1694.27 923.61,1694.00 923.81,1693.66 923.92,1693.26"/>
    </edge>
    <edge id=":1077286388_0" function="internal">
        <lane id=":1077286388_0_0" index="0" disallow="tram rail_urban rail rail_electric rail_fast ship" speed="27.78" length="0.28" shape="3135.10,2921.22 3134.82,2921.22"/>
    </edge>
    <edge id=":1077286388_1" function="internal">
        <lane id=":1077286388_1_0" index="0" disallow="tram rail_urban rail rail_electric rail_fast ship" speed="27.78" length="0.30" shape="3134.70,2918.03 3135.00,2918.01"/>
    </edge>
    <edge id=":1077665381_0" function="internal">
        <lane id=":1077665381_0_0" index="0" disallow="tram rail_urban rail rail_electric rail_fast ship" speed="7.13" length="6.76" shape="2691.15,3268.34 2689.57,3268.24 2688.05,3268.61 2686.59,3269.46 2685.20,3270.79"/>
    </edge>
    <edge id=":1077665381_1" function="internal">
        <lane id=":1077665381_1_0" index="0" disallow="tram rail_urban rail rail_electric rail_fast ship" speed="13.89" length="7.39" shape="2691.15,3268.34 2689.02,3267.84 2687.61,3267.32 2686.30,3266.56 2684.49,3265.33"/>
    </edge>
    <edge id=":1077665407_0" function="internal">
        <lane id=":1077665407_0_0" index="0" disallow="pedestrian bicycle tram rail_urban rail rail_electric rail_fast ship" speed="6.94" length="7.21" shape="2757.45,3214.12 2755.84,3212.92 2754.20,3212.27 2752.54,3212.19 2750.84,3212.67"/>
    </edge>
    <edge id=":1077665407_1" function="internal">
        <lane id=":1077665407_1_0" index="0" disallow="pedestrian bicycle tram rail_urban rail rail_electric rail_fast ship" speed="13.07" length="7.43" shape="2757.47,3208.31 2755.97,3210.13 2754.65,3211.09 2753.08,3211.76 2750.84,3212.67"/>
        <lane id=":1077665407_1_1" index="1" disallow="pedestrian bicycle tram rail_urban rail rail_electric rail_fast ship" speed="27.78" length="7.43" shape="2755.20,3206.12 2753.64,3207.39 2752.54,3208.21 2751.35,3208.90 2749.54,3209.74"/>
    </edge>
    <edge id=":1077665421_0" function="internal">
        <lane id=":1077665421_0_0" index="0" disallow="tram rail_urban rail rail_electric rail_fast ship" speed="13.89" length="7.19" shape="2683.03,3264.14 2681.84,3262.37 2681.07,3261.12 2680.50,3259.77 2679.90,3257.73"/>
    </edge>
    <edge id=":1077665421_1" function="internal">
        <lane id=":1077665421_1_0" index="0" disallow="tram rail_urban rail rail_electric rail_fast ship" speed="7.42" length="6.66" shape="2677.89,3263.81 2679.06,3262.24 2679.79,3260.70 2680.07,3259.20 2679.90,3257.73"/>
    </edge>
    <edge id=":1077665436_0" function="internal">
        <lane id=":1077665436_0_0" index="0" disallow="pedestrian bicycle tram rail_urban rail rail_electric rail_fast ship" speed="9.17" length="6.75" shape="2876.10,3033.04 2876.66,3038.64"/>
        <lane id=":1077665436_0_1" index="1" disallow="pedestrian bicycle tram rail_urban rail rail_electric rail_fast ship" speed="10.76" length="6.75" shape="2872.97,3033.68 2873.14,3036.04 2872.98,3037.82 2873.21,3039.37 2874.55,3041.05"/>
    </edge>
    <edge id=":1077665436_2" function="internal">
        <lane id=":1077665436_2_0" index="0" disallow="pedestrian bicycle tram rail_urban rail rail_electric rail_fast ship" speed="9.93" length="6.75" shape="2869.76,3036.81 2871.96,3036.80 2873.54,3036.88 2874.94,3037.38 2876.66,3038.64"/>
        <lane id=":1077665436_2_1" index="1" disallow="pedestrian bicycle tram rail_urban rail rail_electric rail_fast ship" speed="9.05" length="6.75" shape="2868.79,3039.99 2870.62,3039.92 2871.94,3039.83 2873.13,3040.08 2874.55,3041.05"/>
    </edge>
    <edge id=":1077665448_0" function="internal">
        <lane id=":1077665448_0_0" index="0" disallow="pedestrian bicycle tram rail_urban rail rail_electric rail_fast ship" speed="8.84" length="7.77" shape="2764.01,3187.80 2762.54,3189.94 2761.57,3191.82 2761.08,3193.44 2761.07,3194.80"/>
    </edge>
    <edge id=":1077665448_1" function="internal">
        <lane id=":1077665448_1_0" index="0" disallow="pedestrian bicycle tram rail_urban rail rail_electric rail_fast ship" speed="10.18" length="10.44" shape="2761.45,3185.87 2759.63,3188.60 2758.43,3191.10 2757.87,3193.37 2757.93,3195.42"/>
    </edge>
    <edge id=":1077665448_2" function="internal">
        <lane id=":1077665448_2_0" index="0" disallow="pedestrian bicycle tram rail_urban rail rail_electric rail_fast ship" speed="11.11" length="9.77" shape="2756.62,3185.85 2758.88,3187.80 2760.00,3189.59 2760.54,3191.74 2761.07,3194.80"/>
        <lane id=":1077665448_2_1" index="1" disallow="pedestrian bicycle tram rail_urban rail rail_electric rail_fast ship" speed="10.42" length="9.77" shape="2753.76,3187.72 2755.78,3189.41 2756.85,3190.93 2757.42,3192.77 2757.93,3195.42"/>
    </edge>
    <edge id=":1078388837_0" function="internal">
        <lane id=":1078388837_0_0" index="0" disallow="tram rail_urban rail rail_electric rail_fast ship" speed="13.89" length="8.38" shape="889.87,1829.01 889.93,1831.51 890.74,1833.20 891.56,1834.90 891.66,1837.40"/>
        <lane id=":1078388837_0_1" index="1" disallow="tram rail_urban rail rail_electric rail_fast ship" speed="13.89" length="8.38" shape="889.87,1829.01 888.50,1836.89"/>
    </edge>
    <edge id=":1078388837_2" function="internal">
        <lane id=":1078388837_2_0" index="0" disallow="tram rail_urban rail rail_electric rail_fast ship" speed="13.89" length="8.85" shape="882.25,1835.87 883.12,1833.51 884.45,1832.16 885.80,1830.81 886.72,1828.45"/>
    </edge>
    <edge id=":1078388877_0" function="internal">
        <lane id=":1078388877_0_0" index="0" disallow="tram rail_urban rail rail_electric rail_fast ship" speed="11.11" length="14.24" shape="817.53,1918.90 804.31,1924.17"/>
    </edge>
    <edge id=":1078388877_1" function="internal">
        <lane id=":1078388877_1_0" index="0" disallow="tram rail_urban rail rail_electric rail_fast ship" speed="7.98" length="5.75" shape="817.53,1918.90 813.72,1919.75 811.90,1919.42"/>
    </edge>
    <edge id=":1078388877_6" function="internal">
        <lane id=":1078388877_6_0" index="0" disallow="tram rail_urban rail rail_electric rail_fast ship" speed="7.98" length="8.49" shape="811.90,1919.42 810.56,1919.17 808.06,1917.15 806.22,1913.70"/>
    </edge>
    <edge id=":1078388877_2" function="internal">
        <lane id=":1078388877_2_0" index="0" disallow="tram rail_urban rail rail_electric rail_fast ship" speed="6.48" length="9.03" shape="809.23,1912.61 810.39,1914.80 811.98,1916.08 813.98,1916.45 816.40,1915.91"/>
    </edge>
    <edge id=":1078388877_3" function="internal">
        <lane id=":1078388877_3_0" index="0" disallow="tram rail_urban rail rail_electric rail_fast ship" speed="8.14" length="14.17" shape="809.23,1912.61 810.04,1916.43 809.49,1919.62 807.58,1922.20 804.31,1924.17"/>
    </edge>
    <edge id=":1078388877_4" function="internal">
        <lane id=":1078388877_4_0" index="0" disallow="tram rail_urban rail rail_electric rail_fast ship" speed="6.67" length="9.19" shape="803.07,1921.21 805.18,1919.94 806.41,1918.27 806.75,1916.19 806.22,1913.70"/>
    </edge>
    <edge id=":1078388877_5" function="internal">
        <lane id=":1078388877_5_0" index="0" disallow="tram rail_urban rail rail_electric rail_fast ship" speed="11.11" length="14.35" shape="803.07,1921.21 816.40,1915.91"/>
    </edge>
    <edge id=":1078388879_0" function="internal">
        <lane id=":1078388879_0_0" index="0" disallow="tram rail_urban rail rail_electric rail_fast ship" speed="13.89" length="0.31" shape="660.89,2064.53 660.59,2064.62"/>
    </edge>
    <edge id=":1078388879_1" function="internal">
        <lane id=":1078388879_1_0" index="0" disallow="tram rail_urban rail rail_electric rail_fast ship" speed="13.89" length="0.27" shape="659.69,2061.55 659.95,2061.47"/>
    </edge>
    <edge id=":1078388889_0" function="internal">
        <lane id=":1078388889_0_0" index="0" disallow="tram rail_urban rail rail_electric rail_fast ship" speed="22.22" length="5.19" shape="884.05,1915.68 883.64,1917.16 883.51,1918.20 883.50,1919.27 883.45,1920.81"/>
    </edge>
    <edge id=":1078388889_1" function="internal">
        <lane id=":1078388889_1_0" index="0" disallow="tram rail_urban rail rail_electric rail_fast ship" speed="4.93" length="4.36" shape="884.05,1915.68 882.90,1918.41 881.91,1919.39"/>
    </edge>
    <edge id=":1078388889_3" function="internal">
        <lane id=":1078388889_3_0" index="0" disallow="tram rail_urban rail rail_electric rail_fast ship" speed="4.93" length="3.77" shape="881.91,1919.39 881.80,1919.50 880.73,1918.96 879.71,1916.77"/>
    </edge>
    <edge id=":1078388889_2" function="internal">
        <lane id=":1078388889_2_0" index="0" disallow="tram rail_urban rail rail_electric rail_fast ship" speed="13.14" length="3.90" shape="880.26,1920.59 880.31,1919.44 880.26,1918.65 880.07,1917.87 879.71,1916.77"/>
    </edge>
    <edge id=":1078388912_0" function="internal">
        <lane id=":1078388912_0_0" index="0" disallow="tram rail_urban rail rail_electric rail_fast ship" speed="8.33" length="0.90" shape="816.39,1877.86 816.32,1878.12 816.27,1878.29 816.20,1878.46 816.09,1878.71"/>
    </edge>
    <edge id=":1078388912_1" function="internal">
        <lane id=":1078388912_1_0" index="0" disallow="tram rail_urban rail rail_electric rail_fast ship" speed="8.33" length="0.30" shape="813.18,1877.38 813.22,1877.30 813.24,1877.24 813.26,1877.18 813.28,1877.10"/>
    </edge>
    <edge id=":1122644218_0" function="internal">
        <lane id=":1122644218_0_0" index="0" disallow="tram rail_urban rail rail_electric rail_fast ship" speed="8.33" length="0.27" shape="2618.29,1473.63 2618.15,1473.39"/>
    </edge>
    <edge id=":1122644218_1" function="internal">
        <lane id=":1122644218_1_0" index="0" disallow="tram rail_urban rail rail_electric rail_fast ship" speed="8.33" length="0.31" shape="2620.94,1471.82 2621.09,1472.09"/>
    </edge>
    <edge id=":1122644239_0" function="internal">
        <lane id=":1122644239_0_0" index="0" disallow="tram rail_urban rail rail_electric rail_fast ship" speed="8.33" length="0.26" shape="2687.27,1804.20 2687.21,1804.45"/>
    </edge>
    <edge id=":1122644239_1" function="internal">
        <lane id=":1122644239_1_0" index="0" disallow="tram rail_urban rail rail_electric rail_fast ship" speed="8.33" length="0.31" shape="2684.10,1803.69 2684.18,1803.38"/>
    </edge>
    <edge id=":1122644248_0" function="internal">
        <lane id=":1122644248_0_0" index="0" disallow="tram rail_urban rail rail_electric rail_fast ship" speed="8.33" length="0.11" shape="2683.56,1828.14 2683.56,1828.25"/>
    </edge>
    <edge id=":1122644248_1" function="internal">
        <lane id=":1122644248_1_0" index="0" disallow="tram rail_urban rail rail_electric rail_fast ship" speed="8.33" length="0.32" shape="2680.36,1828.22 2680.37,1827.91"/>
    </edge>
    <edge id=":1138471618_0" function="internal">
        <lane id=":1138471618_0_0" index="0" disallow="tram rail_urban rail rail_electric rail_fast ship" speed="13.89" length="0.10" shape="2222.49,1089.96 2222.46,1090.05"/>
    </edge>
    <edge id=":1138471618_1" function="internal">
        <lane id=":1138471618_1_0" index="0" disallow="tram rail_urban rail rail_electric rail_fast ship" speed="13.89" length="0.10" shape="2219.44,1089.01 2219.41,1089.10"/>
    </edge>
    <edge id=":1138471634_0" function="internal">
        <lane id=":1138471634_0_0" index="0" disallow="tram rail_urban rail rail_electric rail_fast ship" speed="22.22" length="0.10" shape="2208.84,1128.00 2208.90,1128.05"/>
    </edge>
    <edge id=":1139001429_0" function="internal">
        <lane id=":1139001429_0_0" index="0" disallow="tram rail_urban rail rail_electric rail_fast ship" speed="11.11" length="0.10" shape="2363.34,2610.74 2363.34,2610.74"/>
    </edge>
    <edge id=":1139001432_0" function="internal">
        <lane id=":1139001432_0_0" index="0" disallow="tram rail_urban rail rail_electric rail_fast ship" speed="11.11" length="0.29" shape="2640.36,2336.58 2640.07,2336.60"/>
    </edge>
    <edge id=":1139001432_1" function="internal">
        <lane id=":1139001432_1_0" index="0" disallow="tram rail_urban rail rail_electric rail_fast ship" speed="11.11" length="0.30" shape="2639.86,2333.40 2640.16,2333.38"/>
    </edge>
    <edge id=":1139001593_0" function="internal">
        <lane id=":1139001593_0_0" index="0" disallow="tram rail_urban rail rail_electric rail_fast ship" speed="11.11" length="0.30" shape="2520.63,2424.28 2520.63,2423.98"/>
    </edge>
    <edge id=":1139001595_0" function="internal">
        <lane id=":1139001595_0_0" index="0" disallow="tram rail_urban rail rail_electric rail_fast ship" speed="11.11" length="0.56" shape="2518.06,2635.18 2518.03,2635.74"/>
    </edge>
    <edge id=":1139001595_1" function="internal">