<?xml version="1.0" encoding="UTF-8"?>
<!-- generated on 2020-05-12 00:16:02.067381 by edgesInDistricts.py UNKNOWN
  options: -n simulations/small/osm.net.xml -t simulations/small/polys.add.xml -o simulations/small/districts.taz.xml
-->
<tazs xmlns:xsi="http://www.w3.org/2001/XMLSchema-instance" xsi:noNamespaceSchemaLocation="http://sumo.dlr.de/xsd/taz_file.xsd">
    <taz id="poly_102" edges="-14508930#2 -21303435 -41361088#1 -41361088#3 -5105781 -5105782#1 14508930#2 21303435 41361088#0 41361088#2 41361089#6 4981432#0 5105781 5105782#0 9099248"/>
    <taz id="poly_103" edges="-14508930#1 -14508930#2 -154112808#6 -154112808#8 -41361088#3 -41361088#4 -41361088#6 14508930#0 14508930#2 154112808#0 154112808#7 21309910#3 41361088#2 41361088#4 41361088#5 5049342#0 719037540#0 9099245 9099246#0 9099248"/>
    <taz id="poly_104" edges="-180066666#1 -180066666#4 -744168635#2 -98440400#1 14154972 154109990#0 180066666#0 180066666#2 21309910#2 21309910#3 23044000#0 301397683#0 328061952#0 5049343#0 505301154#0 719037540#0 744168635#0 9099246#0 98440400#0"/>
    <taz id="poly_105" edges="-154112820#1 -4984536#3 -5049367#3 -505301152#1 -744168635#2 154109990#0 154109991 154112820#0 4984536#0 505301144#0 505301145#0 505301147#0 505301150#0 505301151#0 505301152#0 744168635#0 9925453#0"/>
    <taz id="poly_106" edges="-15495876 -328061950#2 -4984534 -5004456 -505301147#0 -505301147#1 -505301148 -505301149#2 -7972019#1 15495876 176370880#0 176370880#1 238955997#0 328061950#0 500278224 500278225 500278226 500278227#0 5004456 505301147#1 505301148 505301149#0 746501175#1 7972019#0 80865280#0 98440390"/>
    <taz id="poly_116" edges="-23044000#1 -4981348 -5051193 199395260 21309910#0 23044000#0 75313320#0 9099247#0"/>
    <taz id="poly_117" edges="-328061953#3 -5051193 -5051196#0 -505301152#1 -9099244#2 328061950#0 5051196#1 505301152#0 505301153#0 505301154#0 75313320#0 9099244#0 9099247#0"/>
    <taz id="poly_118" edges="-29088844 -328061950#2 -4981346 104290820#0 104290822#0 169348263#0 169348264#0 328061950#0 4981346 5107097 515073669#0 515073671#0 7972003#0 80865280#0"/>
    <taz id="poly_119" edges="-4984534 176370867 176370871 176370876 515073669#0 515073671#0 80865280#0"/>
    <taz id="poly_131" edges="-27601986 -4984534 27601986 37524434 37524435 515073684 561770410 80865280#0"/>
    <taz id="poly_143" edges="-308284427#2 -4984534 233981122 238086628 249470011 30677574 308284427#0 308284429#1 328241502 37524435 4983969#0 561770405#0 561770405#1 561770407#0 561770410 60660263 682854380 682854381 682854404 717944152 737126620 737126634 80865280#0 86166122"/>
    <taz id="poly_19" edges="-23036043#2 15235421 176690218 176690222#1 179137924 23036043#0 270122696#1"/>
    <taz id="poly_31" edges="-18949537 -295692545 -318656081#2 -624437995 15235421 16234307 169241041#0 176690222#1 176690222#3 18949537 295692545 318656081#0 438900529#0 4981504#0 744168638 744168641"/>
    <taz id="poly_42" edges="-296576678#1 -296576680#2 296576677#0 296576679#0"/>
    <taz id="poly_43" edges="-165400234 -176690221#1 -18949544 -296206244#1 -296556216#1 -296576678#1 -296576680#2 -30662361#4 -624437995 165400232 165400234 176690221#0 176690222#3 18949537 18949544 296206244#0 296556216#0 296556219#0 296576677#0 296576679#0 30662361#0 30662362 30662363 438900529#0 4981504#0"/>
    <taz id="poly_44" edges="296556219#0"/>
    <taz id="poly_53" edges="-296576676#1 295692544#0"/>
    <taz id="poly_54" edges="-19852375#1 -21870223#1 -296576676#1 -296576678#1 -296576680#2 -5049346#4 -5106153#4 13854786#0 19852375#0 21870223#0 295692544#0 296576677#0 296576679#0 5049346#3 5106153#0"/>
    <taz id="poly_55" edges="-176690221#1 -176724388#2 -18949545#1 -19852374#3 -19852375#1 -21870223#1 -21870223#3 -296556210#1 -296556213#1 -30662361#4 -30662364 176690221#0 176724388#0 18949545#0 19852374#0 19852375#0 21870223#0 21870223#2 24017939#0 296556213#0 30662361#0 30662364"/>
    <taz id="poly_56" edges="-296556210#1 -296556213#1 22947419 24017939#0 296556213#0 296556219#0"/>
    <taz id="poly_64" edges="-13636727#3 13636727#3 13804116 5049348#0"/>
    <taz id="poly_65" edges="-13636727#2 -13636727#3 -165221455 -296576676#1 -5049400#2 13636727#0 13636727#3 13804116 13804339#3 165221455 295692544#0 445395221#0 5049347#4 5049400#0"/>
    <taz id="poly_66" edges="-15429570#1 -5049346#1 -510239016 -8051475#1 -8051475#4 -8051475#6 13864691#0 15429570#0 15429575#0 18953135#6 296576675 445395231#0 5049346#0 5049347#0 5049347#4 8051475#0 8051475#2 8051475#5"/>
    <taz id="poly_67" edges="-176724388#2 -227487138#2 -32652607#2 176724388#0 18953135#0 18953135#6 21870218#0 227487138#0 302374777 302374778#0 30770543#0 32652607#0 445395231#0 5147959#0 744168644#0"/>
    <taz id="poly_68" edges="-233574693#1 -296556210#1 -30596405 -30662365#1 -32652606#3 -32652607#2 -32652608#1 -759460659 -8051474#3 227487139#0 227487140#0 233574693#0 24017939#0 30596405 32652606#0 32652607#0 32652608#0 4981272#0 729565370#0 744168644#0 8051474#0"/>
    <taz id="poly_75" edges="-7931045 7931045"/>
    <taz id="poly_76" edges="-201817818#1 -301077360 -7931045 201817818#0 301077360 5049348#1 7931045"/>
    <taz id="poly_77" edges="-201817818#1 -301077360 -5049350#3 13804339#0 201817818#0 301077360 301077361 41361081 445395221#0 445395223 4973559#0 5049349#0 5049350#0"/>
    <taz id="poly_78" edges="-15429577 -15429578#1 -15437168 -30670371#2 -445395227#1 -445395229#1 -8051475#1 15429575#0 15429577 15429578#0 15437168 296576675 301077362#0 30670371#0 445395222 445395227#0 4973559#0 4973559#2 4981431 505301156 8051475#0"/>
    <taz id="poly_79" edges="-178878603 -249388667#2 -445395229#1 -4981430#1 178878603 215136485 249388667#0 302374777 302374778#0 302374780 445395222 4981430#0"/>
    <taz id="poly_80" edges="-179137922#3 -249388667#2 -30662365#1 -5000422#3 -505301155#1 -55379622#2 179137922#0 215136485 249388667#0 302374780 5000422#0 5049343#0 505301141#0 55379622#0 55379625#0 729565370#0 744168637"/>
    <taz id="poly_81" edges="-30670370#2 -310980429#2 -4973556#3 -5000422#3 -505301142#2 30670370#0 4973556#0 4981272#0 4984535 5000422#0 505301141#0 505301142#0"/>
    <taz id="poly_90" edges="-16558813#2 -4973787#2 -4973787#3 -5049341#1 -759460634 16558813#2 16558813#3 41361089#3 41361089#6 4973559#2 4973787#0 4973787#3 4981431 4981432#0 4981432#2 4981432#3 4981432#5 5049341#1 9226774#0"/>
    <taz id="poly_91" edges="-154112808#6 -16558813#1 -16558815#0 -16558815#1 -4973787#3 -4973787#6 -5049341#0 -5049341#1 154112808#0 16558813#0 16558815#0 16558815#1 4973787#3 4973787#4 5049341#0 5049341#1 5049342#0 5049342#3 5049342#4 9226774#0"/>
    <taz id="poly_92" edges="5049343#0"/>
    <taz id="poly_93" edges="-29088848#2 -30670370#2 -4973556#10 -4973556#3 -4973556#6 -505301143#2 -505301147#0 29088848#0 30670370#0 4973556#0 4973556#4 4973556#7 505301143#0 505301144#0 505301145#0 505301147#0 609589075#0 8010118#0 9925453#0"/>
</tazs>
