<?xml version="1.0" encoding="UTF-8"?>

<!-- generated on Thu Apr 30 01:19:41 2020 by Eclipse SUMO netconvert Version 1.5.0
<configuration xmlns:xsi="http://www.w3.org/2001/XMLSchema-instance" xsi:noNamespaceSchemaLocation="http://sumo.dlr.de/xsd/netconvertConfiguration.xsd">

    <input>
        <sumo-net-file value="simulations/small/osm.net.xml"/>
    </input>

    <output>
        <output-file value="simulations/small/osm.net.xml"/>
        <output.street-names value="true"/>
    </output>

    <processing>
        <geometry.min-radius.fix.railways value="false"/>
        <geometry.max-grade.fix value="false"/>
        <offset.disable-normalization value="true"/>
        <lefthand value="false"/>
    </processing>

    <junctions>
        <no-turnarounds value="true"/>
        <no-turnarounds.except-deadend value="true"/>
        <junctions.corner-detail value="5"/>
        <junctions.limit-turn-speed value="5.5"/>
        <rectangular-lane-cut value="false"/>
    </junctions>

    <pedestrian>
        <walkingareas value="false"/>
    </pedestrian>

    <report>
        <aggregate-warnings value="5"/>
    </report>

</configuration>
-->

<net version="1.3" junctionCornerDetail="5" limitTurnSpeed="5.50" xmlns:xsi="http://www.w3.org/2001/XMLSchema-instance" xsi:noNamespaceSchemaLocation="http://sumo.dlr.de/xsd/net_file.xsd">

    <location netOffset="-568224.72,-7032781.83" convBoundary="306.15,688.76,2510.21,2548.01" origBoundary="9.830552,63.383475,10.654323,63.595923" projParameter="+proj=utm +zone=32 +ellps=WGS84 +datum=WGS84 +units=m +no_defs"/>

    <type id="highway.bridleway" priority="1" numLanes="1" speed="2.78" allow="pedestrian" oneway="1" width="2.00"/>
    <type id="highway.bus_guideway" priority="1" numLanes="1" speed="27.78" allow="bus" oneway="1"/>
    <type id="highway.cycleway" priority="1" numLanes="1" speed="8.33" allow="bicycle" oneway="0" width="1.00"/>
    <type id="highway.footway" priority="1" numLanes="1" speed="2.78" allow="pedestrian" oneway="1" width="2.00"/>
    <type id="highway.ford" priority="1" numLanes="1" speed="2.78" allow="army" oneway="0"/>
    <type id="highway.living_street" priority="2" numLanes="1" speed="2.78" disallow="tram rail_urban rail rail_electric rail_fast ship" oneway="0"/>
    <type id="highway.motorway" priority="14" numLanes="2" speed="39.44" allow="private emergency authority army vip passenger hov taxi bus coach delivery truck trailer motorcycle evehicle custom1 custom2" oneway="1"/>
    <type id="highway.motorway_link" priority="9" numLanes="1" speed="22.22" allow="private emergency authority army vip passenger hov taxi bus coach delivery truck trailer motorcycle evehicle custom1 custom2" oneway="1"/>
    <type id="highway.path" priority="1" numLanes="1" speed="2.78" allow="pedestrian bicycle" oneway="1" width="2.00"/>
    <type id="highway.pedestrian" priority="1" numLanes="1" speed="2.78" allow="pedestrian" oneway="1" width="2.00"/>
    <type id="highway.primary" priority="12" numLanes="2" speed="27.78" disallow="tram rail_urban rail rail_electric rail_fast ship" oneway="0"/>
    <type id="highway.primary_link" priority="7" numLanes="1" speed="22.22" disallow="tram rail_urban rail rail_electric rail_fast ship" oneway="0"/>
    <type id="highway.raceway" priority="15" numLanes="2" speed="83.33" allow="vip" oneway="0"/>
    <type id="highway.residential" priority="3" numLanes="1" speed="13.89" disallow="tram rail_urban rail rail_electric rail_fast ship" oneway="0"/>
    <type id="highway.secondary" priority="11" numLanes="1" speed="27.78" disallow="tram rail_urban rail rail_electric rail_fast ship" oneway="0"/>
    <type id="highway.secondary_link" priority="6" numLanes="1" speed="22.22" disallow="tram rail_urban rail rail_electric rail_fast ship" oneway="0"/>
    <type id="highway.service" priority="1" numLanes="1" speed="5.56" allow="pedestrian delivery bicycle" oneway="0"/>
    <type id="highway.stairs" priority="1" numLanes="1" speed="1.39" allow="pedestrian" oneway="1" width="2.00"/>
    <type id="highway.step" priority="1" numLanes="1" speed="1.39" allow="pedestrian" oneway="1" width="2.00"/>
    <type id="highway.steps" priority="1" numLanes="1" speed="1.39" allow="pedestrian" oneway="1" width="2.00"/>
    <type id="highway.tertiary" priority="10" numLanes="1" speed="22.22" disallow="tram rail_urban rail rail_electric rail_fast ship" oneway="0"/>
    <type id="highway.tertiary_link" priority="5" numLanes="1" speed="22.22" disallow="tram rail_urban rail rail_electric rail_fast ship" oneway="0"/>
    <type id="highway.track" priority="1" numLanes="1" speed="5.56" disallow="tram rail_urban rail rail_electric rail_fast ship" oneway="0"/>
    <type id="highway.trunk" priority="13" numLanes="2" speed="27.78" disallow="pedestrian bicycle tram rail_urban rail rail_electric rail_fast ship" oneway="0"/>
    <type id="highway.trunk_link" priority="8" numLanes="1" speed="22.22" disallow="pedestrian bicycle tram rail_urban rail rail_electric rail_fast ship" oneway="0"/>
    <type id="highway.unclassified" priority="4" numLanes="1" speed="13.89" disallow="tram rail_urban rail rail_electric rail_fast ship" oneway="0"/>
    <type id="highway.unsurfaced" priority="1" numLanes="1" speed="8.33" disallow="tram rail_urban rail rail_electric rail_fast ship" oneway="0"/>
    <type id="railway.highspeed" priority="21" numLanes="1" speed="69.44" allow="rail_fast" oneway="1"/>
    <type id="railway.light_rail" priority="19" numLanes="1" speed="27.78" allow="rail_urban" oneway="1"/>
    <type id="railway.preserved" priority="16" numLanes="1" speed="27.78" allow="rail" oneway="1"/>
    <type id="railway.rail" priority="20" numLanes="1" speed="44.44" allow="rail" oneway="1"/>
    <type id="railway.subway" priority="18" numLanes="1" speed="27.78" allow="rail_urban" oneway="1"/>
    <type id="railway.tram" priority="17" numLanes="1" speed="13.89" allow="tram" oneway="1"/>

    <edge id=":10137943_0" function="internal">
        <lane id=":10137943_0_0" index="0" disallow="tram rail_urban rail rail_electric rail_fast ship" speed="27.78" length="12.35" shape="2463.06,2253.03 2461.47,2255.76 2460.46,2258.14 2459.33,2260.69 2457.34,2263.94"/>
    </edge>
    <edge id=":10137943_1" function="internal">
        <lane id=":10137943_1_0" index="0" disallow="tram rail_urban rail rail_electric rail_fast ship" speed="3.65" length="2.44" shape="2463.06,2253.03 2461.72,2253.56 2460.84,2253.43 2460.79,2253.34"/>
    </edge>
    <edge id=":10137943_4" function="internal">
        <lane id=":10137943_4_0" index="0" disallow="tram rail_urban rail rail_electric rail_fast ship" speed="3.65" length="2.23" shape="2460.79,2253.34 2460.41,2252.65 2460.43,2251.20"/>
    </edge>
    <edge id=":10137943_2" function="internal">
        <lane id=":10137943_2_0" index="0" disallow="tram rail_urban rail rail_electric rail_fast ship" speed="18.83" length="11.71" shape="2451.45,2258.50 2454.29,2256.89 2456.50,2255.46 2458.44,2253.73 2460.43,2251.20"/>
    </edge>
    <edge id=":10137943_3" function="internal">
        <lane id=":10137943_3_0" index="0" disallow="tram rail_urban rail rail_electric rail_fast ship" speed="5.65" length="12.20" shape="2451.45,2258.50 2455.30,2256.64 2457.13,2256.62 2456.94,2258.44 2454.72,2262.10"/>
    </edge>
    <edge id=":1077286388_0" function="internal">
        <lane id=":1077286388_0_0" index="0" disallow="tram rail_urban rail rail_electric rail_fast ship" speed="27.78" length="0.28" shape="2257.10,2277.28 2256.82,2277.28"/>
    </edge>
    <edge id=":1077286388_1" function="internal">
        <lane id=":1077286388_1_0" index="0" disallow="tram rail_urban rail rail_electric rail_fast ship" speed="27.78" length="0.30" shape="2256.70,2274.09 2257.00,2274.07"/>
    </edge>
    <edge id=":1077665436_0" function="internal">
        <lane id=":1077665436_0_0" index="0" disallow="pedestrian bicycle tram rail_urban rail rail_electric rail_fast ship" speed="9.17" length="6.75" shape="1998.11,2389.10 1998.67,2394.70"/>
        <lane id=":1077665436_0_1" index="1" disallow="pedestrian bicycle tram rail_urban rail rail_electric rail_fast ship" speed="10.76" length="6.75" shape="1994.98,2389.74 1995.15,2392.10 1994.99,2393.88 1995.22,2395.43 1996.56,2397.11"/>
    </edge>
    <edge id=":1077665436_2" function="internal">
        <lane id=":1077665436_2_0" index="0" disallow="pedestrian bicycle tram rail_urban rail rail_electric rail_fast ship" speed="9.93" length="6.75" shape="1991.77,2392.87 1993.97,2392.86 1995.55,2392.94 1996.96,2393.44 1998.67,2394.70"/>
        <lane id=":1077665436_2_1" index="1" disallow="pedestrian bicycle tram rail_urban rail rail_electric rail_fast ship" speed="9.05" length="6.75" shape="1990.80,2396.05 1992.63,2395.98 1993.95,2395.89 1995.14,2396.14 1996.56,2397.11"/>
    </edge>
    <edge id=":1139001891_0" function="internal">
        <lane id=":1139001891_0_0" index="0" disallow="tram rail_urban rail rail_electric rail_fast ship" speed="27.78" length="5.28" shape="1652.77,2134.51 1651.21,2134.42 1650.13,2134.38 1649.06,2134.47 1647.54,2134.82"/>
    </edge>
    <edge id=":1139001891_1" function="internal">
        <lane id=":1139001891_1_0" index="0" disallow="tram rail_urban rail rail_electric rail_fast ship" speed="3.65" length="2.51" shape="1652.77,2134.51 1651.60,2133.66 1651.23,2132.85 1651.32,2132.70"/>
    </edge>
    <edge id=":1139001891_4" function="internal">
        <lane id=":1139001891_4_0" index="0" disallow="tram rail_urban rail rail_electric rail_fast ship" speed="3.65" length="2.16" shape="1651.32,2132.70 1651.66,2132.06 1652.89,2131.31"/>
    </edge>
    <edge id=":1139001891_2" function="internal">
        <lane id=":1139001891_2_0" index="0" disallow="tram rail_urban rail rail_electric rail_fast ship" speed="27.78" length="3.66" shape="1649.27,2130.78 1652.89,2131.31"/>
    </edge>
    <edge id=":1139001891_3" function="internal">
        <lane id=":1139001891_3_0" index="0" disallow="tram rail_urban rail rail_electric rail_fast ship" speed="5.43" length="5.88" shape="1649.27,2130.78 1652.76,2131.43 1653.64,2132.31 1652.74,2132.90"/>
    </edge>
    <edge id=":1139001891_5" function="internal">
        <lane id=":1139001891_5_0" index="0" disallow="tram rail_urban rail rail_electric rail_fast ship" speed="5.43" length="5.57" shape="1652.74,2132.90 1651.90,2133.45 1647.54,2134.82"/>
    </edge>
    <edge id=":1139002566_0" function="internal">
        <lane id=":1139002566_0_0" index="0" disallow="tram rail_urban rail rail_electric rail_fast ship" speed="7.20" length="6.50" shape="1626.57,2008.19 1625.72,2006.63 1624.65,2005.43 1623.36,2004.61 1621.84,2004.17"/>
    </edge>
    <edge id=":1139002566_1" function="internal">
        <lane id=":1139002566_1_0" index="0" disallow="tram rail_urban rail rail_electric rail_fast ship" speed="5.51" length="8.66" shape="1626.57,2008.19 1625.60,2005.19 1625.61,2003.14 1626.61,2002.04 1628.58,2001.90"/>
    </edge>
    <edge id=":1139002566_2" function="internal">
        <lane id=":1139002566_2_0" index="0" disallow="tram rail_urban rail rail_electric rail_fast ship" speed="11.11" length="6.39" shape="1628.16,2005.07 1621.84,2004.17"/>
    </edge>
    <edge id=":1139002566_3" function="internal">
        <lane id=":1139002566_3_0" index="0" disallow="tram rail_urban rail rail_electric rail_fast ship" speed="3.65" length="2.34" shape="1628.16,2005.07 1627.08,2004.12 1626.79,2003.27"/>
    </edge>
    <edge id=":1139002566_7" function="internal">
        <lane id=":1139002566_7_0" index="0" disallow="tram rail_urban rail rail_electric rail_fast ship" speed="3.65" length="2.34" shape="1626.79,2003.27 1627.29,2002.53 1628.58,2001.90"/>
    </edge>
    <edge id=":1139002566_4" function="internal">
        <lane id=":1139002566_4_0" index="0" disallow="tram rail_urban rail rail_electric rail_fast ship" speed="11.11" length="6.26" shape="1622.84,1997.85 1629.01,1998.72"/>
        <lane id=":1139002566_4_1" index="1" disallow="tram rail_urban rail rail_electric rail_fast ship" speed="11.11" length="6.26" shape="1622.34,2001.01 1628.58,2001.90"/>
    </edge>
    <edge id=":1139002566_6" function="internal">
        <lane id=":1139002566_6_0" index="0" disallow="tram rail_urban rail rail_electric rail_fast ship" speed="3.65" length="2.34" shape="1622.34,2001.01 1623.40,2001.99 1623.67,2002.84"/>
    </edge>
    <edge id=":1139002566_8" function="internal">
        <lane id=":1139002566_8_0" index="0" disallow="tram rail_urban rail rail_electric rail_fast ship" speed="3.65" length="2.34" shape="1623.67,2002.84 1623.15,2003.57 1621.84,2004.17"/>
    </edge>
    <edge id=":1139392922_0" function="internal">
        <lane id=":1139392922_0_0" index="0" disallow="tram rail_urban rail rail_electric rail_fast ship" speed="8.34" length="0.31" shape="1081.69,1660.66 1081.42,1660.51"/>
    </edge>
    <edge id=":1139392922_1" function="internal">
        <lane id=":1139392922_1_0" index="0" disallow="tram rail_urban rail rail_electric rail_fast ship" speed="8.34" length="0.29" shape="1082.88,1657.67 1083.13,1657.80"/>
    </edge>
    <edge id=":1203329904_0" function="internal">
        <lane id=":1203329904_0_0" index="0" disallow="tram rail_urban rail rail_electric rail_fast ship" speed="15.50" length="14.60" shape="1908.71,2119.86 1907.19,2115.53 1905.55,2112.44 1903.57,2110.04 1901.01,2107.80"/>
    </edge>
    <edge id=":1203329904_1" function="internal">
        <lane id=":1203329904_1_0" index="0" disallow="tram rail_urban rail rail_electric rail_fast ship" speed="20.84" length="14.63" shape="1908.71,2119.86 1907.65,2115.62 1907.30,2112.63 1907.10,2109.60 1906.51,2105.25"/>
        <lane id=":1203329904_1_1" index="1" disallow="tram rail_urban rail rail_electric rail_fast ship" speed="20.84" length="14.63" shape="1911.77,2118.95 1910.75,2114.81 1910.41,2111.89 1910.23,2108.94 1909.66,2104.69"/>
    </edge>
    <edge id=":1203329911_0" function="internal">
        <lane id=":1203329911_0_0" index="0" disallow="tram rail_urban rail rail_electric rail_fast ship" speed="9.05" length="7.39" shape="1889.22,2102.99 1886.80,2102.43 1884.79,2102.21 1883.18,2102.30 1881.97,2102.71"/>
    </edge>
    <edge id=":1203329911_1" function="internal">
        <lane id=":1203329911_1_0" index="0" disallow="tram rail_urban rail rail_electric rail_fast ship" speed="27.78" length="7.74" shape="1888.64,2098.78 1881.97,2102.71"/>
    </edge>
    <edge id=":128170443_0" function="internal">
        <lane id=":128170443_0_0" index="0" disallow="tram rail_urban rail rail_electric rail_fast ship" speed="6.48" length="9.05" shape="908.07,1395.53 907.58,1393.09 906.43,1391.40 904.62,1390.46 902.15,1390.28"/>
    </edge>
    <edge id=":128170443_1" function="internal">
        <lane id=":128170443_1_0" index="0" disallow="tram rail_urban rail rail_electric rail_fast ship" speed="7.97" length="14.26" shape="908.07,1395.53 908.41,1391.62 909.92,1388.79 912.60,1387.02 916.45,1386.32"/>
    </edge>
    <edge id=":128170443_2" function="internal">
        <lane id=":128170443_2_0" index="0" disallow="tram rail_urban rail rail_electric rail_fast ship" speed="3.65" length="4.67" shape="908.07,1395.53 908.80,1394.28 909.57,1393.84 910.40,1394.19 911.26,1395.35"/>
    </edge>
    <edge id=":128170443_3" function="internal">
        <lane id=":128170443_3_0" index="0" disallow="tram rail_urban rail rail_electric rail_fast ship" speed="6.47" length="9.03" shape="916.57,1389.51 914.13,1389.96 912.43,1391.08 911.48,1392.87 911.26,1395.35"/>
    </edge>
    <edge id=":128170443_4" function="internal">
        <lane id=":128170443_4_0" index="0" disallow="tram rail_urban rail rail_electric rail_fast ship" speed="8.33" length="14.45" shape="916.57,1389.51 902.15,1390.28"/>
    </edge>
    <edge id=":128170443_5" function="internal">
        <lane id=":128170443_5_0" index="0" disallow="tram rail_urban rail rail_electric rail_fast ship" speed="3.65" length="4.67" shape="916.57,1389.51 915.34,1388.76 914.91,1387.98 915.28,1387.16 916.45,1386.32"/>
    </edge>
    <edge id=":128170443_6" function="internal">
        <lane id=":128170443_6_0" index="0" disallow="tram rail_urban rail rail_electric rail_fast ship" speed="7.09" length="10.58" shape="908.70,1381.00 909.35,1383.43 910.86,1385.12 913.22,1386.09 916.45,1386.32"/>
    </edge>
    <edge id=":128170443_7" function="internal">
        <lane id=":128170443_7_0" index="0" disallow="tram rail_urban rail rail_electric rail_fast ship" speed="8.33" length="14.59" shape="908.70,1381.00 909.23,1384.64 910.02,1388.17 910.80,1391.70 911.26,1395.35"/>
    </edge>
    <edge id=":128170443_8" function="internal">
        <lane id=":128170443_8_0" index="0" disallow="tram rail_urban rail rail_electric rail_fast ship" speed="7.64" length="12.95" shape="908.70,1381.00 908.55,1384.87 907.40,1387.71 905.27,1389.51 902.15,1390.28"/>
    </edge>
    <edge id=":128170443_9" function="internal">
        <lane id=":128170443_9_0" index="0" disallow="tram rail_urban rail rail_electric rail_fast ship" speed="8.33" length="14.55" shape="901.93,1387.09 916.45,1386.32"/>
    </edge>
    <edge id=":128170443_10" function="internal">
        <lane id=":128170443_10_0" index="0" disallow="tram rail_urban rail rail_electric rail_fast ship" speed="7.98" length="14.25" shape="901.93,1387.09 905.83,1387.38 908.68,1388.85 910.49,1391.51 911.26,1395.35"/>
    </edge>
    <edge id=":128170443_11" function="internal">
        <lane id=":128170443_11_0" index="0" disallow="tram rail_urban rail rail_electric rail_fast ship" speed="3.65" length="4.67" shape="901.93,1387.09 903.18,1387.80 903.63,1388.58 903.29,1389.40 902.15,1390.28"/>
    </edge>
    <edge id=":128735020_0" function="internal">
        <lane id=":128735020_0_0" index="0" disallow="tram rail_urban rail rail_electric rail_fast ship" speed="8.33" length="11.12" shape="1200.07,1075.62 1188.98,1074.93"/>
    </edge>
    <edge id=":128735020_1" function="internal">
        <lane id=":128735020_1_0" index="0" disallow="tram rail_urban rail rail_electric rail_fast ship" speed="6.51" length="8.99" shape="1194.88,1069.70 1194.38,1072.11 1193.22,1073.78 1191.42,1074.72 1188.98,1074.93"/>
    </edge>
    <edge id=":128735534_0" function="internal">
        <lane id=":128735534_0_0" index="0" disallow="tram rail_urban rail rail_electric rail_fast ship" speed="8.33" length="10.66" shape="1194.80,990.65 1205.39,991.78"/>
    </edge>
    <edge id=":128735534_1" function="internal">
        <lane id=":128735534_1_0" index="0" disallow="tram rail_urban rail rail_electric rail_fast ship" speed="6.55" length="8.74" shape="1194.80,990.65 1197.06,991.28 1198.63,992.50 1199.50,994.31 1199.67,996.70"/>
    </edge>
    <edge id=":132920995_0" function="internal">
        <lane id=":132920995_0_0" index="0" disallow="tram rail_urban rail rail_electric rail_fast ship" speed="6.02" length="9.09" shape="1022.40,1629.29 1020.01,1628.30 1018.07,1628.44 1016.58,1629.71 1015.53,1632.10"/>
    </edge>
    <edge id=":132920995_1" function="internal">
        <lane id=":132920995_1_0" index="0" disallow="tram rail_urban rail rail_electric rail_fast ship" speed="13.89" length="15.89" shape="1022.40,1629.29 1008.42,1621.74"/>
    </edge>
    <edge id=":132920995_2" function="internal">
        <lane id=":132920995_2_0" index="0" disallow="tram rail_urban rail rail_electric rail_fast ship" speed="9.32" length="15.81" shape="1022.40,1629.29 1019.02,1626.65 1016.96,1623.54 1016.22,1619.94 1016.80,1615.86"/>
    </edge>
    <edge id=":132920995_3" function="internal">
        <lane id=":132920995_3_0" index="0" disallow="tram rail_urban rail rail_electric rail_fast ship" speed="3.65" length="4.67" shape="1022.40,1629.29 1021.75,1628.00 1021.80,1627.10 1022.54,1626.61 1023.98,1626.50"/>
    </edge>
    <edge id=":132920995_4" function="internal">
        <lane id=":132920995_4_0" index="0" disallow="tram rail_urban rail rail_electric rail_fast ship" speed="8.02" length="11.50" shape="1019.87,1616.75 1019.45,1619.71 1020.00,1622.32 1021.51,1624.58 1023.98,1626.50"/>
    </edge>
    <edge id=":132920995_5" function="internal">
        <lane id=":132920995_5_0" index="0" disallow="tram rail_urban rail rail_electric rail_fast ship" speed="11.11" length="15.95" shape="1019.87,1616.75 1015.53,1632.10"/>
    </edge>
    <edge id=":132920995_6" function="internal">
        <lane id=":132920995_6_0" index="0" disallow="tram rail_urban rail rail_electric rail_fast ship" speed="7.70" length="5.98" shape="1019.87,1616.75 1018.14,1620.59 1016.80,1621.73"/>
    </edge>
    <edge id=":132920995_7" function="internal">
        <lane id=":132920995_7_0" index="0" disallow="tram rail_urban rail rail_electric rail_fast ship" speed="3.65" length="2.34" shape="1019.87,1616.75 1018.77,1617.68 1017.89,1617.84"/>
    </edge>
    <edge id=":132920995_16" function="internal">
        <lane id=":132920995_16_0" index="0" disallow="tram rail_urban rail rail_electric rail_fast ship" speed="7.70" length="8.99" shape="1016.80,1621.73 1015.65,1622.71 1012.41,1623.09 1008.42,1621.74"/>
    </edge>
    <edge id=":132920995_17" function="internal">
        <lane id=":132920995_17_0" index="0" disallow="tram rail_urban rail rail_electric rail_fast ship" speed="3.65" length="2.34" shape="1017.89,1617.84 1017.23,1617.24 1016.80,1615.86"/>
    </edge>
    <edge id=":132920995_8" function="internal">
        <lane id=":132920995_8_0" index="0" disallow="tram rail_urban rail rail_electric rail_fast ship" speed="6.14" length="9.06" shape="1009.86,1618.89 1012.28,1619.70 1014.24,1619.47 1015.75,1618.19 1016.80,1615.86"/>
    </edge>
    <edge id=":132920995_9" function="internal">
        <lane id=":132920995_9_0" index="0" disallow="tram rail_urban rail rail_electric rail_fast ship" speed="13.89" length="16.04" shape="1009.86,1618.89 1023.98,1626.50"/>
    </edge>
    <edge id=":132920995_10" function="internal">
        <lane id=":132920995_10_0" index="0" disallow="tram rail_urban rail rail_electric rail_fast ship" speed="9.08" length="15.78" shape="1009.86,1618.89 1013.29,1621.27 1015.37,1624.26 1016.12,1627.87 1015.53,1632.10"/>
    </edge>
    <edge id=":132920995_11" function="internal">
        <lane id=":132920995_11_0" index="0" disallow="tram rail_urban rail rail_electric rail_fast ship" speed="3.65" length="4.67" shape="1009.86,1618.89 1010.57,1620.14 1010.57,1621.04 1009.85,1621.57 1008.42,1621.74"/>
    </edge>
    <edge id=":132920995_12" function="internal">
        <lane id=":132920995_12_0" index="0" disallow="tram rail_urban rail rail_electric rail_fast ship" speed="7.78" length="11.32" shape="1012.45,1631.24 1012.88,1628.20 1012.35,1625.60 1010.86,1623.45 1008.42,1621.74"/>
    </edge>
    <edge id=":132920995_13" function="internal">
        <lane id=":132920995_13_0" index="0" disallow="tram rail_urban rail rail_electric rail_fast ship" speed="11.11" length="15.98" shape="1012.45,1631.24 1016.80,1615.86"/>
    </edge>
    <edge id=":132920995_14" function="internal">
        <lane id=":132920995_14_0" index="0" disallow="tram rail_urban rail rail_electric rail_fast ship" speed="7.61" length="6.19" shape="1012.45,1631.24 1014.20,1627.22 1015.58,1626.05"/>
    </edge>
    <edge id=":132920995_15" function="internal">
        <lane id=":132920995_15_0" index="0" disallow="tram rail_urban rail rail_electric rail_fast ship" speed="3.65" length="2.34" shape="1012.45,1631.24 1013.54,1630.30 1014.42,1630.13"/>
    </edge>
    <edge id=":132920995_18" function="internal">
        <lane id=":132920995_18_0" index="0" disallow="tram rail_urban rail rail_electric rail_fast ship" speed="7.61" length="9.09" shape="1015.58,1626.05 1016.71,1625.09 1019.97,1624.85 1023.98,1626.50"/>
    </edge>
    <edge id=":132920995_19" function="internal">
        <lane id=":132920995_19_0" index="0" disallow="tram rail_urban rail rail_electric rail_fast ship" speed="3.65" length="2.34" shape="1014.42,1630.13 1015.08,1630.73 1015.53,1632.10"/>
    </edge>
    <edge id=":142655238_0" function="internal">
        <lane id=":142655238_0_0" index="0" disallow="tram rail_urban rail rail_electric rail_fast ship" speed="8.18" length="31.43" shape="1697.37,1397.77 1693.46,1386.63 1691.56,1383.01 1691.66,1386.91 1693.75,1398.34"/>
    </edge>
    <edge id=":142655238_1" function="internal">
        <lane id=":142655238_1_0" index="0" disallow="tram rail_urban rail rail_electric rail_fast ship" speed="11.11" length="24.67" shape="1697.37,1397.77 1688.25,1374.85"/>
    </edge>
    <edge id=":142655238_2" function="internal">
        <lane id=":142655238_2_0" index="0" disallow="tram rail_urban rail rail_electric rail_fast ship" speed="11.11" length="24.56" shape="1691.31,1373.92 1692.17,1379.06 1692.70,1386.09 1693.15,1393.13 1693.75,1398.34"/>
    </edge>
    <edge id=":142655238_3" function="internal">
        <lane id=":142655238_3_0" index="0" disallow="tram rail_urban rail rail_electric rail_fast ship" speed="3.65" length="4.67" shape="1691.31,1373.92 1690.89,1375.30 1690.25,1375.91 1689.36,1375.76 1688.25,1374.85"/>
    </edge>
    <edge id=":142655238_4" function="internal">
        <lane id=":142655238_4_0" index="0" disallow="tram rail_urban rail rail_electric rail_fast ship" speed="11.11" length="23.52" shape="1690.47,1398.24 1689.90,1393.19 1689.53,1386.50 1689.07,1379.83 1688.25,1374.85"/>
    </edge>
    <edge id=":142655238_5" function="internal">
        <lane id=":142655238_5_0" index="0" disallow="tram rail_urban rail rail_electric rail_fast ship" speed="3.68" length="4.80" shape="1690.47,1398.24 1691.33,1397.03 1692.16,1396.65 1692.97,1397.08 1693.75,1398.34"/>
    </edge>
    <edge id=":142655243_0" function="internal">
        <lane id=":142655243_0_0" index="0" disallow="tram rail_urban rail rail_electric rail_fast ship" speed="10.11" length="8.65" shape="1800.81,1760.99 1799.47,1763.23 1798.25,1764.79 1797.58,1766.38 1797.93,1768.69"/>
    </edge>
    <edge id=":142655243_1" function="internal">
        <lane id=":142655243_1_0" index="0" disallow="tram rail_urban rail rail_electric rail_fast ship" speed="3.97" length="5.96" shape="1800.81,1760.99 1798.98,1760.80 1798.06,1760.14 1798.03,1759.00 1798.91,1757.38"/>
    </edge>
    <edge id=":142655243_2" function="internal">
        <lane id=":142655243_2_0" index="0" disallow="tram rail_urban rail rail_electric rail_fast ship" speed="5.96" length="12.10" shape="1791.83,1755.65 1793.54,1759.55 1795.28,1761.14 1797.07,1760.42 1798.91,1757.38"/>
    </edge>
    <edge id=":142655243_3" function="internal">
        <lane id=":142655243_3_0" index="0" disallow="tram rail_urban rail rail_electric rail_fast ship" speed="11.11" length="14.44" shape="1791.83,1755.65 1792.65,1758.89 1793.08,1761.91 1793.66,1765.32 1794.91,1769.73"/>
    </edge>
    <edge id=":152930274_0" function="internal">
        <lane id=":152930274_0_0" index="0" disallow="tram rail_urban rail rail_electric rail_fast ship" speed="11.11" length="14.49" shape="1196.75,1374.66 1182.28,1375.63"/>
    </edge>
    <edge id=":152930274_1" function="internal">
        <lane id=":152930274_1_0" index="0" disallow="tram rail_urban rail rail_electric rail_fast ship" speed="7.69" length="5.99" shape="1196.75,1374.66 1192.52,1374.32 1191.00,1373.44"/>
    </edge>
    <edge id=":152930274_2" function="internal">
        <lane id=":152930274_2_0" index="0" disallow="tram rail_urban rail rail_electric rail_fast ship" speed="3.65" length="2.34" shape="1196.75,1374.66 1195.50,1373.94 1195.05,1373.16"/>
    </edge>
    <edge id=":152930274_9" function="internal">
        <lane id=":152930274_9_0" index="0" disallow="tram rail_urban rail rail_electric rail_fast ship" speed="7.69" length="9.03" shape="1191.00,1373.44 1189.69,1372.68 1188.27,1369.74 1188.25,1365.49"/>
    </edge>
    <edge id=":152930274_10" function="internal">
        <lane id=":152930274_10_0" index="0" disallow="tram rail_urban rail rail_electric rail_fast ship" speed="3.65" length="2.34" shape="1195.05,1373.16 1195.40,1372.34 1196.55,1371.47"/>
    </edge>
    <edge id=":152930274_3" function="internal">
        <lane id=":152930274_3_0" index="0" disallow="tram rail_urban rail rail_electric rail_fast ship" speed="6.11" length="9.06" shape="1191.42,1365.94 1191.43,1368.50 1192.29,1370.27 1193.99,1371.26 1196.55,1371.47"/>
    </edge>
    <edge id=":152930274_4" function="internal">
        <lane id=":152930274_4_0" index="0" disallow="tram rail_urban rail rail_electric rail_fast ship" speed="8.80" length="14.57" shape="1191.42,1365.94 1190.37,1369.97 1188.50,1372.92 1185.80,1374.81 1182.28,1375.63"/>
    </edge>
    <edge id=":152930274_5" function="internal">
        <lane id=":152930274_5_0" index="0" disallow="tram rail_urban rail rail_electric rail_fast ship" speed="3.65" length="4.67" shape="1191.42,1365.94 1190.47,1367.02 1189.62,1367.30 1188.88,1366.79 1188.25,1365.49"/>
    </edge>
    <edge id=":152930274_6" function="internal">
        <lane id=":152930274_6_0" index="0" disallow="tram rail_urban rail rail_electric rail_fast ship" speed="7.44" length="10.17" shape="1182.05,1372.44 1184.42,1371.86 1186.24,1370.51 1187.52,1368.39 1188.25,1365.49"/>
    </edge>
    <edge id=":152930274_7" function="internal">
        <lane id=":152930274_7_0" index="0" disallow="tram rail_urban rail rail_electric rail_fast ship" speed="11.11" length="14.52" shape="1182.05,1372.44 1196.55,1371.47"/>
    </edge>
    <edge id=":152930274_8" function="internal">
        <lane id=":152930274_8_0" index="0" disallow="tram rail_urban rail rail_electric rail_fast ship" speed="3.65" length="2.34" shape="1182.05,1372.44 1183.31,1373.15 1183.77,1373.92"/>
    </edge>
    <edge id=":152930274_11" function="internal">
        <lane id=":152930274_11_0" index="0" disallow="tram rail_urban rail rail_electric rail_fast ship" speed="3.65" length="2.34" shape="1183.77,1373.92 1183.42,1374.74 1182.28,1375.63"/>
    </edge>
    <edge id=":152930286_0" function="internal">