<?xml version="1.0" encoding="UTF-8"?>

<!-- generated on qui 30 abr 2020 01:16:31 WEST by Eclipse SUMO netedit Version 1.5.0
<configuration xmlns:xsi="http://www.w3.org/2001/XMLSchema-instance" xsi:noNamespaceSchemaLocation="http://sumo.dlr.de/xsd/netconvertConfiguration.xsd">

    <input>
        <sumo-net-file value="osm.net.xml"/>
    </input>

    <output>
        <output-file value="osm.net.xml"/>
        <output.street-names value="true"/>
    </output>

    <processing>
        <geometry.min-radius.fix.railways value="false"/>
        <geometry.max-grade.fix value="false"/>
        <offset.disable-normalization value="true"/>
        <lefthand value="false"/>
    </processing>

    <junctions>
        <no-turnarounds value="true"/>
        <junctions.corner-detail value="5"/>
        <junctions.limit-turn-speed value="5.5"/>
        <rectangular-lane-cut value="false"/>
    </junctions>

    <pedestrian>
        <walkingareas value="false"/>
    </pedestrian>

    <netedit>
        <additional-files value="/home/mykhamarf/Documents/University/sumo/tools/2020-04-30-01-01-55/osm.poly2.add.xml"/>
    </netedit>

    <report>
        <aggregate-warnings value="5"/>
    </report>

</configuration>
-->

<additional xmlns:xsi="http://www.w3.org/2001/XMLSchema-instance" xsi:noNamespaceSchemaLocation="http://sumo.dlr.de/xsd/additional_file.xsd">
    <poly id="100478219" type="building.yes" color="255,230,230" fill="1" layer="-1.00" shape="2069.422426,1851.674391 2063.453222,1844.153458 2064.951939,1839.103955 2078.214204,1830.724276 2084.402607,1838.718181 2084.099491,1841.832326 2069.422426,1851.674391"/>
    <poly id="100478221" type="building.yes" color="255,230,230" fill="1" layer="-1.00" shape="2042.398594,1984.907229 2040.583023,1977.812041 2041.640899,1977.144264 2038.769137,1965.645570 2040.781338,1966.068769 2043.722800,1966.679590 2045.083909,1962.663609 2050.746230,1963.022185 2051.301831,1958.865889 2057.186056,1959.574876 2057.157554,1955.650941 2063.054525,1955.780639 2063.023579,1951.968107 2068.693760,1951.970224 2069.019804,1947.585965 2073.879081,1947.692857 2074.431930,1943.436191 2079.653345,1942.737418 2079.173723,1938.446893 2084.502052,1938.107143 2084.134645,1933.707628 2088.078732,1933.214826 2089.537946,1931.775692 2101.789614,1943.447408 2089.421270,1956.360682 2073.755727,1968.956261 2063.308646,1975.770581 2052.430469,1981.081921 2042.398594,1984.907229"/>
    <poly id="100478228" type="building.yes" color="255,230,230" fill="1" layer="-1.00" shape="2064.388610,1798.220061 2082.916186,1778.542947 2064.979834,1760.671853 2049.000946,1777.718984 2064.388610,1798.220061"/>
    <poly id="100478238" type="building.yes" color="255,230,230" fill="1" layer="-1.00" shape="2065.105180,2014.363292 2062.032858,2000.642154 2061.146761,1996.677065 2078.369346,1988.395657 2094.933979,1976.221136 2105.876059,1966.876576 2114.391816,1955.516991 2127.217521,1967.179153 2119.431005,1976.247583 2108.397344,1987.484862 2093.750966,1998.453198 2082.125747,2005.731945 2065.105180,2014.363292"/>
    <poly id="100478241" type="building.yes" color="255,230,230" fill="1" layer="-1.00" shape="2024.382732,1779.050236 2034.783121,1771.432254 2068.083972,1816.758718 2056.116016,1825.523567 2047.871935,1814.307976 2051.093480,1811.949040 2043.314837,1801.356714 2044.826610,1800.253087 2041.458303,1795.664994 2038.292610,1797.980585 2024.382732,1779.050236"/>
    <poly id="100478247" type="building.yes" color="255,230,230" fill="1" layer="-1.00" shape="2089.906145,1908.689769 2138.033986,1877.626980 2138.971978,1871.751521 2107.715354,1846.108098 2092.446905,1856.282562 2099.300762,1865.561758 2116.944266,1879.012899 2108.600056,1884.836812 2105.754684,1882.578475 2091.911454,1891.279626 2093.686166,1894.785009 2085.747072,1897.853744 2089.906145,1908.689769"/>
    <poly id="100478252" type="building.yes" color="255,230,230" fill="1" layer="-1.00" shape="2080.649793,1887.688121 2089.417239,1883.723646 2087.402598,1875.241976 2097.633543,1867.832244 2089.999391,1857.265266 2073.407855,1869.729026 2073.379918,1870.999028 2080.649793,1887.688121"/>
    <poly id="100478255" type="building.yes" color="255,230,230" fill="1" layer="-1.00" shape="2041.607388,1767.770441 2054.730833,1754.817846 2047.279271,1747.732475 2045.882241,1747.021866 2043.784774,1747.064914 2034.628767,1753.250132 2034.305499,1754.558224 2034.121379,1756.348643 2034.543292,1757.138122 2041.607388,1767.770441"/>
    <poly id="100478264" type="building.industrial" color="255,230,230" fill="0" layer="-1.00" shape="2016.232129,1859.410318 2025.118527,1873.649303 2061.915463,1850.751365 2053.029157,1836.512277 2025.523674,1853.629283"/>
    <poly id="100478269" type="building.yes" color="255,230,230" fill="1" layer="-1.00" shape="2111.792182,1923.727773 2105.218741,1912.147543 2147.423267,1887.363357 2157.451989,1894.806673 2158.716923,1893.352144 2164.934531,1898.192604 2166.866941,1895.894557 2177.212437,1903.456371 2143.437853,1947.306714 2132.851890,1939.561380 2134.623791,1937.750194 2132.688536,1936.325510 2136.894878,1929.362850 2123.466125,1919.013724 2116.656645,1923.600782 2114.387344,1921.477719 2111.792182,1923.727773"/>
    <poly id="100479095" type="amenity.place_of_worship" color="237,199,199" fill="1" layer="-1.00" shape="2142.151291,1800.354859 2147.822996,1805.060656 2148.455752,1810.101331 2151.799021,1812.872229 2155.142529,1815.631990 2160.373334,1815.423963 2165.976364,1820.072553 2167.119626,1818.704513 2168.619817,1819.941300 2171.573345,1816.383983 2170.053196,1815.146755 2174.842928,1809.356150 2168.930233,1804.488954 2165.334889,1808.856925 2164.439694,1804.401191 2157.752907,1798.870513 2154.886885,1798.907707 2152.517487,1796.793561 2151.619840,1797.888370 2147.207791,1794.235714 2145.787261,1795.954320 2144.664843,1795.015652 2142.388302,1797.751968 2143.515954,1798.679604 2142.151291,1800.354859"/>
    <poly id="100479095#1" type="building.church" color="255,230,230" fill="1" layer="-1.00" shape="2142.151291,1800.354859 2147.822996,1805.060656 2148.455752,1810.101331 2151.799021,1812.872229 2155.142529,1815.631990 2160.373334,1815.423963 2165.976364,1820.072553 2167.119626,1818.704513 2168.619817,1819.941300 2171.573345,1816.383983 2170.053196,1815.146755 2174.842928,1809.356150 2168.930233,1804.488954 2165.334889,1808.856925 2164.439694,1804.401191 2157.752907,1798.870513 2154.886885,1798.907707 2152.517487,1796.793561 2151.619840,1797.888370 2147.207791,1794.235714 2145.787261,1795.954320 2144.664843,1795.015652 2142.388302,1797.751968 2143.515954,1798.679604 2142.151291,1800.354859"/>
    <poly id="100479104" type="building.yes" color="255,230,230" fill="1" layer="-1.00" shape="2092.916935,1757.106759 2102.004254,1746.562201 2103.157001,1745.216639 2138.631149,1775.689791 2128.391039,1787.579798 2092.916935,1757.106759"/>
    <poly id="100808836" type="building.yes" color="255,230,230" fill="1" layer="-1.00" shape="2173.669808,1859.664611 2180.195315,1864.578756 2180.116531,1868.154814 2168.792513,1882.350276 2164.414134,1882.387584 2148.933254,1868.660570 2155.198993,1861.119119 2156.912310,1862.650385 2165.219357,1870.078097 2173.669808,1859.664611"/>
    <poly id="100808837" type="building.yes" color="255,230,230" fill="1" layer="-1.00" shape="2165.322348,1852.938170 2156.912310,1862.650385 2155.198993,1861.119119 2141.746767,1850.011494 2150.052096,1839.839958 2165.322348,1852.938170"/>
    <poly id="100808841" type="building.yes" color="255,230,230" fill="1" layer="-1.00" shape="2103.607424,1829.544254 2111.287005,1835.553645 2110.339074,1836.212674 2118.007101,1842.745679 2123.861410,1835.072507 2125.039605,1836.424789 2133.340169,1826.241959 2127.474640,1821.498483 2124.680035,1821.013425 2122.369399,1821.898806 2121.084159,1822.461241 2119.260107,1824.371599 2117.000697,1826.785081 2116.613128,1828.972267 2112.616147,1829.140646 2108.606520,1826.254812 2103.607424,1829.544254"/>
    <poly id="100808842" type="building.yes" color="255,230,230" fill="1" layer="-1.00" shape="2118.007101,1842.745679 2123.861410,1835.072507 2125.039605,1836.424789 2139.966615,1848.567931 2134.435273,1856.080998 2118.007101,1842.745679"/>
    <poly id="100808843" type="building.yes" color="255,230,230" fill="1" layer="-1.00" shape="2125.039605,1836.424789 2139.966615,1848.567931 2141.746767,1850.011494 2150.052096,1839.839958 2133.340169,1826.241959 2125.039605,1836.424789"/>
    <poly id="100808844" type="building.yes" color="255,230,230" fill="1" layer="-1.00" shape="2148.933254,1868.660570 2134.435273,1856.080998 2139.966615,1848.567931 2141.746767,1850.011494 2155.198993,1861.119119 2148.933254,1868.660570"/>
    <poly id="101183270" type="landuse.residential" color="235,235,227" fill="1" layer="-3.00" shape="2369.419507,2264.952653 2369.332342,2267.090721 2369.175110,2270.141195 2266.612078,2269.671344 2228.076715,2272.410377 2195.621050,2272.174185 2164.045667,2270.040641 2136.037347,2267.517835 2124.995849,2266.683989 2112.083493,2265.363167 2099.079042,2239.653424 2160.419277,2176.146758 2177.803187,2177.276493 2180.266316,2180.106062 2280.450528,2182.649421 2303.315011,2168.608751 2340.431418,2169.840592 2341.522837,2143.471458 2357.724212,2142.558665 2373.813710,2139.481198 2373.483869,2150.118145 2372.802823,2162.419202 2371.341003,2188.824733 2371.158405,2195.508176 2370.310385,2228.469852 2369.698292,2254.593222 2369.419507,2264.952653"/>
    <poly id="101515058" type="natural.coastline" color="140,196,107" fill="0" layer="-4.00" shape="1241.654096,2132.679633 1244.434476,2119.577021 1263.319149,2054.005156 1272.881800,2048.517668"/>
    <poly id="101515061" type="natural.coastline" color="140,196,107" fill="0" layer="-4.00" shape="1250.325018,2038.720524 1247.120180,2047.467086 1222.083095,2119.180342"/>
    <poly id="102471230" type="building.yes" color="255,230,230" fill="1" layer="-1.00" shape="1824.823549,1320.447828 1823.324850,1320.493004 1823.202701,1316.043181 1811.013982,1316.377966 1811.365578,1320.609900 1802.983356,1321.295617 1803.504705,1330.312787 1809.258852,1330.405419 1822.600458,1331.678588 1822.729028,1327.178531 1811.211611,1326.725532 1811.186176,1324.696452 1824.809287,1324.515707 1824.823549,1320.447828"/>
    <poly id="102471233" type="building.yes" color="255,230,230" fill="1" layer="-1.00" shape="1751.527995,1547.229440 1755.846665,1560.654285 1785.090741,1551.263574 1780.771934,1537.849829 1751.527995,1547.229440"/>
    <poly id="102471238" type="building.yes" color="255,230,230" fill="1" layer="-1.00" shape="1785.865345,1350.434523 1783.553117,1342.492705 1781.796836,1336.747627 1780.888699,1333.762974 1778.923479,1334.366386 1779.627431,1336.644386 1768.589260,1340.069602 1773.745466,1354.471334 1785.865345,1350.434523"/>
    <poly id="102471241" type="building.commercial" color="255,230,230" fill="1" layer="-1.00" shape="1702.009977,1391.944638 1699.172856,1381.517052 1717.640950,1375.278267 1722.519521,1384.580243 1702.009977,1391.944638"/>
    <poly id="102471242" type="building.yes" color="255,230,230" fill="1" layer="-1.00" shape="1811.365578,1320.609900 1811.013982,1316.377966 1810.378042,1308.718062 1801.995545,1309.414923 1802.983356,1321.295617 1811.365578,1320.609900"/>
    <poly id="102471246" type="building.yes" color="255,230,230" fill="1" layer="-1.00" shape="1768.884494,1600.373368 1773.760649,1615.460019 1804.839866,1605.452094 1799.964082,1590.354255 1768.884494,1600.373368"/>
    <poly id="102471249" type="building.commercial" color="255,230,230" fill="1" layer="-1.00" shape="1710.834086,1416.457657 1731.343498,1409.093320 1735.940010,1408.469453 1740.792853,1425.327697 1715.400564,1433.175845 1714.841349,1432.951840 1710.834086,1416.457657"/>
    <poly id="102471253" type="building.yes" color="255,230,230" fill="1" layer="-1.00" shape="1799.942382,1296.028508 1800.716700,1295.777974 1812.468628,1294.419316 1815.861753,1293.813775 1816.352988,1297.368881 1807.780080,1298.551966 1808.345657,1302.587965 1818.175681,1301.220659 1819.021408,1307.280177 1810.378042,1308.718062 1801.995545,1309.414923 1799.942382,1296.028508"/>
    <poly id="102471255" type="building.yes" color="255,230,230" fill="1" layer="-1.00" shape="1812.635899,1384.302138 1812.074571,1382.807456 1811.563220,1381.993759 1815.780021,1380.247113 1820.742934,1390.699105 1816.593316,1392.569820 1815.826157,1391.583331 1812.635899,1384.302138"/>
    <poly id="102471258" type="building.commercial" color="255,230,230" fill="1" layer="-1.00" shape="1715.400564,1433.175845 1740.792853,1425.327697 1742.607340,1424.765547 1746.631129,1437.760379 1719.424693,1446.159502 1715.400564,1433.175845"/>
    <poly id="102471260" type="building.commercial" color="255,230,230" fill="1" layer="-1.00" shape="1719.424693,1446.159502 1746.631129,1437.760379 1750.389945,1447.806945 1722.993712,1456.670001 1719.424693,1446.159502"/>
    <poly id="102471262" type="building.yes" color="255,230,230" fill="1" layer="-1.00" shape="1759.049274,1309.042789 1784.229606,1302.260305 1787.637955,1314.862753 1783.574957,1315.966355 1777.819850,1317.512171 1762.457469,1321.656349 1759.049274,1309.042789"/>
    <poly id="102471264" type="building.yes" color="255,230,230" fill="1" layer="-1.00" shape="1812.635899,1384.302138 1797.962009,1390.757245 1797.154114,1391.174230 1800.368616,1398.489375 1815.826157,1391.583331 1812.635899,1384.302138"/>
    <poly id="102471266" type="building.yes" color="255,230,230" fill="1" layer="-1.00" shape="1761.139482,1574.044739 1764.604154,1584.519572 1793.537117,1574.966090 1790.067538,1564.491116 1761.139482,1574.044739"/>
    <poly id="102471268" type="building.yes" color="255,230,230" fill="1" layer="-1.00" shape="1812.074571,1382.807456 1810.935280,1383.083428 1808.772777,1378.109633 1806.287519,1378.980277 1795.095294,1383.973571 1797.962009,1390.757245 1812.635899,1384.302138 1812.074571,1382.807456"/>
    <poly id="102471270" type="building.yes" color="255,230,230" fill="1" layer="-1.00" shape="1755.915544,1560.700376 1759.944314,1573.684197 1790.067538,1564.491116 1785.090741,1551.263574 1755.915544,1560.700376"/>
    <poly id="102471273" type="building.yes" color="255,230,230" fill="1" layer="-1.00" shape="1794.581513,1324.700484 1795.756240,1333.063221 1786.039934,1335.625676 1781.796836,1336.747627 1780.888699,1333.762974 1783.653871,1331.282311 1783.407728,1329.984016 1777.771475,1330.663067 1776.670698,1327.128057 1780.281986,1326.817045 1794.581513,1324.700484"/>
    <poly id="102471275" type="building.commercial" color="255,230,230" fill="1" layer="-1.00" shape="1688.408660,1358.276830 1709.410421,1351.469254 1713.315940,1363.491771 1694.094071,1369.725240 1692.319237,1370.299431 1688.408660,1358.276830"/>
    <poly id="102471279" type="building.yes" color="255,230,230" fill="1" layer="-1.00" shape="1802.284362,1373.709808 1792.164866,1378.046725 1795.095294,1383.973571 1806.287519,1378.980277 1802.284362,1373.709808"/>
    <poly id="102471280" type="building.yes" color="255,230,230" fill="1" layer="-1.00" shape="1780.281986,1326.817045 1779.580849,1324.182444 1777.819850,1317.512171 1762.457469,1321.656349 1765.627508,1330.553174 1776.670698,1327.128057 1780.281986,1326.817045"/>
    <poly id="102471283" type="building.yes" color="255,230,230" fill="1" layer="-1.00" shape="1751.527995,1547.229440 1780.771934,1537.849829 1774.835965,1521.915176 1746.614178,1531.116599 1751.527995,1547.229440"/>
    <poly id="102471284" type="building.yes" color="255,230,230" fill="1" layer="-1.00" shape="1775.204017,1297.671223 1773.164061,1288.007791 1781.961202,1286.160779 1784.001133,1295.824218 1775.204017,1297.671223"/>
    <poly id="102471286" type="building.yes" color="255,230,230" fill="1" layer="-1.00" shape="1776.670698,1327.128057 1777.771475,1330.663067 1778.923479,1334.366386 1779.627431,1336.644386 1768.589260,1340.069602 1765.627508,1330.553174 1776.670698,1327.128057"/>
    <poly id="102471289" type="building.yes" color="255,230,230" fill="1" layer="-1.00" shape="1787.877376,1280.227082 1791.947950,1299.520328 1757.641955,1306.738249 1753.173283,1285.552709 1757.240922,1284.694375 1785.568528,1278.738713 1787.877376,1280.227082"/>
    <poly id="102471291" type="building.yes" color="255,230,230" fill="1" layer="-1.00" shape="1823.084916,1311.849806 1823.202701,1316.043181 1823.324850,1320.493004 1824.823549,1320.447828 1835.144054,1320.161314 1834.717549,1304.770858 1826.390198,1305.000743 1826.576819,1311.747999 1823.084916,1311.849806"/>
    <poly id="102471294" type="building.commercial" color="255,230,230" fill="1" layer="-1.00" shape="1710.834086,1416.457657 1702.009977,1391.944638 1722.519521,1384.580243 1731.343498,1409.093320 1710.834086,1416.457657"/>
    <poly id="102471295" type="building.yes" color="255,230,230" fill="1" layer="-1.00" shape="1774.652038,1616.014537 1779.433660,1629.717057 1784.023442,1643.515696 1788.750717,1656.960690 1793.397359,1670.894339 1824.748537,1659.844879 1825.835778,1659.434026 1820.752351,1645.847417 1815.767904,1632.753400 1810.702361,1619.713343 1804.839866,1605.452094 1774.652038,1616.014537"/>
    <poly id="102471297" type="building.yes" color="255,230,230" fill="1" layer="-1.00" shape="1779.580849,1324.182444 1780.281986,1326.817045 1794.581513,1324.700484 1793.095247,1313.466472 1787.637955,1314.862753 1783.574957,1315.966355 1784.346771,1319.248957 1782.310295,1323.105359 1779.580849,1324.182444"/>
    <poly id="102471301" type="building.commercial" color="255,230,230" fill="1" layer="-1.00" shape="1688.408660,1358.276830 1682.187743,1339.126177 1697.573438,1334.135053 1703.184624,1332.318449 1709.410421,1351.469254 1688.408660,1358.276830"/>
    <poly id="102471302" type="building.yes" color="255,230,230" fill="1" layer="-1.00" shape="1785.865345,1350.434523 1783.553117,1342.492705 1787.063419,1341.321269 1786.039934,1335.625676 1795.756240,1333.063221 1797.231777,1346.381251 1785.865345,1350.434523"/>
    <poly id="102471303" type="building.commercial" color="255,230,230" fill="1" layer="-1.00" shape="1725.348740,1463.799074 1752.957640,1455.252775 1758.120205,1471.181591 1730.103000,1479.685469 1725.348740,1463.799074"/>
    <poly id="102471305" type="building.commercial" color="255,230,230" fill="1" layer="-1.00" shape="1730.103000,1479.685469 1758.120205,1471.181591 1762.518712,1483.928301 1734.206332,1493.150148 1730.103000,1479.685469"/>
    <poly id="102471307" type="building.commercial" color="255,230,230" fill="1" layer="-1.00" shape="1694.094071,1369.725240 1713.315940,1363.491771 1717.640950,1375.278267 1699.172856,1381.517052 1698.009113,1381.770237 1694.094071,1369.725240"/>
    <poly id="102471310" type="building.yes" color="255,230,230" fill="1" layer="-1.00" shape="1799.345124,1283.866582 1797.855304,1283.733634 1796.758960,1274.982513 1798.336294,1272.943961 1812.065200,1271.818087 1813.143737,1282.519325 1810.461164,1282.594298 1799.345124,1283.866582"/>
    <poly id="102471312" type="building.yes" color="255,230,230" fill="1" layer="-1.00" shape="1800.716700,1295.777974 1812.468628,1294.419316 1811.998352,1290.363113 1806.753197,1290.961519 1806.186693,1286.056133 1810.801405,1285.521933 1810.461164,1282.594298 1799.345124,1283.866582 1800.716700,1295.777974"/>
    <poly id="102471314" type="building.yes" color="255,230,230" fill="1" layer="-1.00" shape="1764.604154,1584.519572 1763.291279,1584.747174 1768.884494,1600.373368 1799.964082,1590.354255 1793.537117,1574.966090 1764.604154,1584.519572"/>
    <poly id="102471317" type="building.commercial" color="255,230,230" fill="1" layer="-1.00" shape="1722.993712,1456.670001 1750.389945,1447.806945 1752.957640,1455.252775 1725.348740,1463.799074 1722.993712,1456.670001"/>
    <poly id="104012570" type="building.hangar" color="255,230,230" fill="1" layer="-1.00" shape="2311.285919,2502.289098 2265.983645,2520.972733 2249.031431,2479.994646 2239.361148,2456.620410 2229.832093,2460.556499 2211.377111,2415.945411 2266.209777,2393.324988 2311.285919,2502.289098"/>
    <poly id="104013321" type="amenity.community_centre" color="237,199,199" fill="1" layer="-1.00" shape="2747.667377,2444.297824 2767.244163,2427.077743 2746.399677,2404.757676 2736.682986,2412.834358 2740.263870,2417.439100 2733.023190,2423.018391 2747.667377,2444.297824"/>
    <poly id="104013321#1" type="building.yes" color="255,230,230" fill="1" layer="-1.00" shape="2747.667377,2444.297824 2767.244163,2427.077743 2746.399677,2404.757676 2736.682986,2412.834358 2740.263870,2417.439100 2733.023190,2423.018391 2747.667377,2444.297824"/>
    <poly id="104015116" type="building.commercial" color="255,230,230" fill="1" layer="-1.00" shape="2379.198273,2266.238712 2379.610194,2205.358322 2455.405780,2206.855679 2455.190641,2218.386828 2458.155144,2218.619591 2457.888931,2222.982857 2463.831177,2222.623895 2461.201668,2234.547465 2457.183380,2248.335102 2453.410565,2250.124142 2450.350434,2252.185303 2447.219845,2255.626988 2443.534371,2258.432239 2440.227541,2259.462540 2436.175576,2261.914174 2431.749604,2262.997755 2423.587191,2265.581429 2416.825256,2266.223279 2409.334815,2266.180290 2379.198273,2266.238712"/>
    <poly id="104015119" type="landuse.commercial" color="209,209,204" fill="1" layer="-3.00" shape="2369.419507,2264.952653 2369.332342,2267.090721 2369.175110,2270.141195 2411.228186,2269.710781 2435.116040,2264.688340 2450.907703,2257.001471 2460.643428,2250.306430 2468.968269,2241.061250 2473.805596,2227.704142 2477.589268,2213.922478 2480.758288,2194.086189 2475.893613,2177.772547 2464.916783,2162.271086 2452.548519,2154.161994 2440.683304,2153.319993 2380.692573,2150.500336 2373.483869,2150.118145 2372.802823,2162.419202 2371.341003,2188.824733 2371.158405,2195.508176 2370.310385,2228.469852 2369.698292,2254.593222 2369.419507,2264.952653"/>
    <poly id="104015121" type="building.yes" color="255,230,230" fill="1" layer="-1.00" shape="1958.824693,2210.967890 1988.987164,2202.702783 1996.406005,2239.847446 1976.383760,2245.916613 1971.525104,2247.392568 1968.656101,2248.265784 1958.824693,2210.967890"/>
    <poly id="104018578" type="building.yes" color="255,230,230" fill="1" layer="-1.00" shape="1689.856733,2484.862809 1733.405772,2439.661569 1719.661312,2426.453887 1676.107314,2471.655204 1689.856733,2484.862809"/>
    <poly id="104018578#1" type="tourism.museum" color="207,245,201" fill="1" layer="-2.00" shape="1689.856733,2484.862809 1733.405772,2439.661569 1719.661312,2426.453887 1676.107314,2471.655204 1689.856733,2484.862809"/>
    <poly id="104851220" type="leisure.slipway" color="207,245,201" fill="0" layer="-2.00" shape="560.313388,1635.758573 595.628120,1657.182791"/>
    <poly id="104851228" type="man_made.pier" color="255,230,230" fill="1" layer="-1.00" shape="524.627415,1679.606625 534.138409,1691.124030 506.249981,1714.097120 507.972124,1716.184949 554.566638,1677.798759 552.820036,1675.688087 536.339796,1689.265492 526.853271,1677.770898 524.627415,1679.606625"/>
    <poly id="104851261" type="man_made.pier" color="255,230,230" fill="0" layer="-1.00" shape="1324.309308,2065.106776 1288.679099,2044.837680"/>
    <poly id="104851287" type="man_made.pier" color="255,230,230" fill="0" layer="-1.00" shape="822.283461,1707.099849 848.482827,1719.201724"/>
    <poly id="111522788" type="waterway.river" color="181,209,209" fill="0" layer="-4.00" shape="1720.879958,1261.250412 1729.136506,1304.865963"/>
    <poly id="111522789" type="waterway.river" color="181,209,209" fill="0" layer="-4.00" shape="1729.136506,1304.865963 1736.831039,1341.302543 1849.069221,1605.864229 1902.381604,1739.467262 1927.154219,1805.926884 1950.240053,1873.230207"/>
    <poly id="112782981" type="building.yes" color="255,230,230" fill="1" layer="-1.00" shape="1676.757230,1865.174567 1678.311205,1863.503262 1735.062815,1864.042956 1736.384594,1871.383491 1745.573708,1870.938220 1750.136701,1882.529378 1757.309204,1880.033754 1768.423250,1909.523561 1766.971091,1911.330801 1682.208751,1926.974258 1679.313224,1925.172185 1676.757230,1865.174567"/>
    <poly id="112782982" type="building.yes" color="255,230,230" fill="1" layer="-1.00" shape="1735.062815,1864.042956 1736.384594,1871.383491 1745.573708,1870.938220 1750.136701,1882.529378 1757.309204,1880.033754 1750.719201,1863.449495 1735.062815,1864.042956"/>
    <poly id="112948150" type="building.university" color="255,230,230" fill="1" layer="-1.00" shape="1087.820474,1339.534865 1104.603461,1340.043734 1105.012858,1331.526183 1099.938810,1331.382694 1090.397553,1331.198066 1088.002380,1331.146127 1087.820474,1339.534865"/>
    <poly id="112948152" type="building.yes" color="255,230,230" fill="1" layer="-1.00" shape="590.238524,1445.433767 598.989127,1445.689052 598.221256,1472.076482 616.405907,1472.601843 617.176757,1446.314787 626.461262,1446.581646 625.411699,1482.559386 607.731065,1482.044827 589.182460,1481.500533 590.238524,1445.433767"/>
    <poly id="112948157" type="building.yes" color="255,230,230" fill="1" layer="-1.00" shape="599.003163,1425.794430 617.952715,1426.280534 617.557202,1441.630676 598.607741,1441.144574 599.003163,1425.794430"/>
    <poly id="112948158" type="building.yes" color="255,230,230" fill="1" layer="-1.00" shape="523.241819,1393.123488 523.886389,1401.451975 545.287922,1399.816991 544.648397,1391.488606 523.241819,1393.123488"/>
    <poly id="112951069" type="building.yes" color="255,230,230" fill="1" layer="-1.00" shape="1837.704602,1999.672670 1862.158459,1992.551783 1863.487706,1989.749918 1855.539043,1963.461115 1852.591131,1962.460226 1832.428483,1965.763109 1834.059823,1974.225054 1845.098002,1972.070733 1849.709556,1984.610502 1836.404208,1987.272386 1837.704602,1999.672670"/>
    <poly id="116692493" type="building.industrial" color="255,230,230" fill="1" layer="-1.00" shape="2667.255217,2672.908068 2691.146118,2659.093613 2715.031991,2645.290365 2740.896209,2632.523214 2763.094359,2620.354702 2738.338875,2575.332844 2710.181658,2524.127754 2691.167879,2494.213789 2674.215782,2504.515268 2668.734198,2494.930822 2683.090649,2486.678267 2674.240028,2470.587900 2661.407911,2477.614836 2659.647200,2474.421502 2656.080568,2476.370915 2650.270959,2465.820686 2644.996573,2468.713061 2641.993566,2463.251872 2632.576494,2468.415298 2650.185375,2505.899183 2660.529444,2499.664086 2665.703599,2509.609509 2597.205519,2545.518061 2612.983359,2574.200538 2632.123063,2609.020991 2667.255217,2672.908068"/>
    <poly id="125093566" type="building.yes" color="255,230,230" fill="1" layer="-1.00" shape="2761.527652,1351.244521 2762.727938,1343.056708 2775.482016,1344.922690 2774.281697,1353.110498 2761.527652,1351.244521"/>
    <poly id="125093569" type="building.yes" color="255,230,230" fill="1" layer="-1.00" shape="2749.208774,1459.731871 2754.078962,1452.862735 2770.126573,1464.208922 2765.256366,1471.078034 2749.208774,1459.731871"/>
    <poly id="125093570" type="building.yes" color="255,230,230" fill="1" layer="-1.00" shape="2728.952577,1390.590464 2736.348803,1395.870588 2744.118137,1385.019867 2736.716908,1379.739615 2728.952577,1390.590464"/>
    <poly id="125093572" type="building.yes" color="255,230,230" fill="1" layer="-1.00" shape="2743.204832,1369.941588 2750.284453,1375.092110 2758.234756,1364.189711 2751.155122,1359.039172 2743.204832,1369.941588"/>
    <poly id="125093573" type="building.yes" color="255,230,230" fill="1" layer="-1.00" shape="2722.325426,1399.917303 2714.968829,1410.621193 2722.502475,1415.781731 2729.854097,1405.077748 2722.325426,1399.917303"/>
    <poly id="125093574" type="building.yes" color="255,230,230" fill="1" layer="-1.00" shape="2728.336711,1445.770883 2739.793469,1453.660114 2744.637169,1446.634335 2733.180150,1438.756226 2728.336711,1445.770883"/>
    <poly id="125093575" type="building.yes" color="255,230,230" fill="1" layer="-1.00" shape="2750.391379,1396.806540 2754.145535,1399.732088 2756.236769,1397.058947 2752.482611,1394.133397 2750.391379,1396.806540"/>
    <poly id="125094577" type="building.yes" color="255,230,230" fill="1" layer="-1.00" shape="2657.179416,1814.143946 2663.916250,1820.980864 2676.290620,1808.827786 2669.553785,1801.990841 2657.179416,1814.143946"/>
    <poly id="125094578" type="building.yes" color="255,230,230" fill="1" layer="-1.00" shape="2615.168350,1804.518699 2622.055759,1811.548343 2635.081960,1798.807684 2628.194550,1791.778012 2615.168350,1804.518699"/>
    <poly id="125094580" type="building.yes" color="255,230,230" fill="1" layer="-1.00" shape="2654.306730,1819.207308 2643.617005,1829.904287 2653.848199,1840.106692 2657.202183,1836.748169 2654.721302,1834.274502 2662.057045,1826.936075 2654.306730,1819.207308"/>
    <poly id="125095176" type="building.yes" color="255,230,230" fill="1" layer="-1.00" shape="2647.546843,1918.745579 2659.913839,1931.659232 2668.465779,1923.489573 2656.098784,1910.575887 2647.546843,1918.745579"/>
    <poly id="125095177" type="building.yes" color="255,230,230" fill="1" layer="-1.00" shape="2647.200195,1873.831392 2654.659339,1881.854624 2666.569694,1870.805804 2659.110553,1862.782545 2647.200195,1873.831392"/>
    <poly id="125095178" type="building.yes" color="255,230,230" fill="1" layer="-1.00" shape="2621.315986,1904.811265 2633.761038,1918.038625 2639.424417,1912.725046 2626.974376,1899.497554 2621.315986,1904.811265"/>
    <poly id="125095179" type="building.yes" color="255,230,230" fill="1" layer="-1.00" shape="2639.555996,1935.153349 2647.946325,1942.595344 2625.795125,1963.492977 2623.173249,1961.528914 2619.319838,1966.258478 2602.267012,1950.365504 2608.589365,1943.015649 2610.166191,1944.388098 2614.278991,1939.441357 2625.083842,1947.170878 2639.555996,1935.153349"/>
    <poly id="125095180" type="building.yes" color="255,230,230" fill="1" layer="-1.00" shape="2659.733340,1839.880556 2667.969995,1848.634396 2675.504362,1841.567905 2667.267708,1832.814046 2659.733340,1839.880556"/>