<additional xmlns:xsi="http://www.w3.org/2001/XMLSchema-instance" xsi:noNamespaceSchemaLocation="http://sumo.dlr.de/xsd/additional_file.xsd">
<poly id="poly_0" color="255,0,0,100" fill="1" layer="128.00" shape="0,0 200,0 200,200 0,200"/>
<poly id="poly_1" color="255,0,0,100" fill="1" layer="128.00" shape="0,200 200,200 200,400 0,400"/>
<poly id="poly_2" color="255,0,0,100" fill="1" layer="128.00" shape="0,400 200,400 200,600 0,600"/>
<poly id="poly_3" color="255,0,0,100" fill="1" layer="128.00" shape="0,600 200,600 200,800 0,800"/>
<poly id="poly_4" color="255,0,0,100" fill="1" layer="128.00" shape="0,800 200,800 200,1000 0,1000"/>
<poly id="poly_5" color="255,0,0,100" fill="1" layer="128.00" shape="0,1000 200,1000 200,1200 0,1200"/>
<poly id="poly_6" color="255,0,0,100" fill="1" layer="128.00" shape="0,1200 200,1200 200,1400 0,1400"/>
<poly id="poly_7" color="255,0,0,100" fill="1" layer="128.00" shape="0,1400 200,1400 200,1600 0,1600"/>
<poly id="poly_8" color="255,0,0,100" fill="1" layer="128.00" shape="0,1600 200,1600 200,1800 0,1800"/>
<poly id="poly_9" color="255,0,0,100" fill="1" layer="128.00" shape="0,1800 200,1800 200,2000 0,2000"/>
<poly id="poly_10" color="255,0,0,100" fill="1" layer="128.00" shape="0,2000 200,2000 200,2200 0,2200"/>
<poly id="poly_11" color="255,0,0,100" fill="1" layer="128.00" shape="0,2200 200,2200 200,2400 0,2400"/>
<poly id="poly_12" color="255,0,0,100" fill="1" layer="128.00" shape="200,0 400,0 400,200 200,200"/>
<poly id="poly_13" color="255,0,0,100" fill="1" layer="128.00" shape="200,200 400,200 400,400 200,400"/>
<poly id="poly_14" color="255,0,0,100" fill="1" layer="128.00" shape="200,400 400,400 400,600 200,600"/>
<poly id="poly_15" color="255,0,0,100" fill="1" layer="128.00" shape="200,600 400,600 400,800 200,800"/>
<poly id="poly_16" color="255,0,0,100" fill="1" layer="128.00" shape="200,800 400,800 400,1000 200,1000"/>
<poly id="poly_17" color="255,0,0,100" fill="1" layer="128.00" shape="200,1000 400,1000 400,1200 200,1200"/>
<poly id="poly_18" color="255,0,0,100" fill="1" layer="128.00" shape="200,1200 400,1200 400,1400 200,1400"/>
<poly id="poly_19" color="255,0,0,100" fill="1" layer="128.00" shape="200,1400 400,1400 400,1600 200,1600"/>
<poly id="poly_20" color="255,0,0,100" fill="1" layer="128.00" shape="200,1600 400,1600 400,1800 200,1800"/>
<poly id="poly_21" color="255,0,0,100" fill="1" layer="128.00" shape="200,1800 400,1800 400,2000 200,2000"/>
<poly id="poly_22" color="255,0,0,100" fill="1" layer="128.00" shape="200,2000 400,2000 400,2200 200,2200"/>
<poly id="poly_23" color="255,0,0,100" fill="1" layer="128.00" shape="200,2200 400,2200 400,2400 200,2400"/>
<poly id="poly_24" color="255,0,0,100" fill="1" layer="128.00" shape="400,0 600,0 600,200 400,200"/>
<poly id="poly_25" color="255,0,0,100" fill="1" layer="128.00" shape="400,200 600,200 600,400 400,400"/>
<poly id="poly_26" color="255,0,0,100" fill="1" layer="128.00" shape="400,400 600,400 600,600 400,600"/>
<poly id="poly_27" color="255,0,0,100" fill="1" layer="128.00" shape="400,600 600,600 600,800 400,800"/>
<poly id="poly_28" color="255,0,0,100" fill="1" layer="128.00" shape="400,800 600,800 600,1000 400,1000"/>
<poly id="poly_29" color="255,0,0,100" fill="1" layer="128.00" shape="400,1000 600,1000 600,1200 400,1200"/>
<poly id="poly_30" color="255,0,0,100" fill="1" layer="128.00" shape="400,1200 600,1200 600,1400 400,1400"/>
<poly id="poly_31" color="255,0,0,100" fill="1" layer="128.00" shape="400,1400 600,1400 600,1600 400,1600"/>
<poly id="poly_32" color="255,0,0,100" fill="1" layer="128.00" shape="400,1600 600,1600 600,1800 400,1800"/>
<poly id="poly_33" color="255,0,0,100" fill="1" layer="128.00" shape="400,1800 600,1800 600,2000 400,2000"/>
<poly id="poly_34" color="255,0,0,100" fill="1" layer="128.00" shape="400,2000 600,2000 600,2200 400,2200"/>
<poly id="poly_35" color="255,0,0,100" fill="1" layer="128.00" shape="400,2200 600,2200 600,2400 400,2400"/>
<poly id="poly_36" color="255,0,0,100" fill="1" layer="128.00" shape="600,0 800,0 800,200 600,200"/>
<poly id="poly_37" color="255,0,0,100" fill="1" layer="128.00" shape="600,200 800,200 800,400 600,400"/>
<poly id="poly_38" color="255,0,0,100" fill="1" layer="128.00" shape="600,400 800,400 800,600 600,600"/>
<poly id="poly_39" color="255,0,0,100" fill="1" layer="128.00" shape="600,600 800,600 800,800 600,800"/>
<poly id="poly_40" color="255,0,0,100" fill="1" layer="128.00" shape="600,800 800,800 800,1000 600,1000"/>
<poly id="poly_41" color="255,0,0,100" fill="1" layer="128.00" shape="600,1000 800,1000 800,1200 600,1200"/>
<poly id="poly_42" color="255,0,0,100" fill="1" layer="128.00" shape="600,1200 800,1200 800,1400 600,1400"/>
<poly id="poly_43" color="255,0,0,100" fill="1" layer="128.00" shape="600,1400 800,1400 800,1600 600,1600"/>
<poly id="poly_44" color="255,0,0,100" fill="1" layer="128.00" shape="600,1600 800,1600 800,1800 600,1800"/>
<poly id="poly_45" color="255,0,0,100" fill="1" layer="128.00" shape="600,1800 800,1800 800,2000 600,2000"/>
<poly id="poly_46" color="255,0,0,100" fill="1" layer="128.00" shape="600,2000 800,2000 800,2200 600,2200"/>
<poly id="poly_47" color="255,0,0,100" fill="1" layer="128.00" shape="600,2200 800,2200 800,2400 600,2400"/>
<poly id="poly_48" color="255,0,0,100" fill="1" layer="128.00" shape="800,0 1000,0 1000,200 800,200"/>
<poly id="poly_49" color="255,0,0,100" fill="1" layer="128.00" shape="800,200 1000,200 1000,400 800,400"/>
<poly id="poly_50" color="255,0,0,100" fill="1" layer="128.00" shape="800,400 1000,400 1000,600 800,600"/>
<poly id="poly_51" color="255,0,0,100" fill="1" layer="128.00" shape="800,600 1000,600 1000,800 800,800"/>
<poly id="poly_52" color="255,0,0,100" fill="1" layer="128.00" shape="800,800 1000,800 1000,1000 800,1000"/>
<poly id="poly_53" color="255,0,0,100" fill="1" layer="128.00" shape="800,1000 1000,1000 1000,1200 800,1200"/>
<poly id="poly_54" color="255,0,0,100" fill="1" layer="128.00" shape="800,1200 1000,1200 1000,1400 800,1400"/>
<poly id="poly_55" color="255,0,0,100" fill="1" layer="128.00" shape="800,1400 1000,1400 1000,1600 800,1600"/>
<poly id="poly_56" color="255,0,0,100" fill="1" layer="128.00" shape="800,1600 1000,1600 1000,1800 800,1800"/>
<poly id="poly_57" color="255,0,0,100" fill="1" layer="128.00" shape="800,1800 1000,1800 1000,2000 800,2000"/>
<poly id="poly_58" color="255,0,0,100" fill="1" layer="128.00" shape="800,2000 1000,2000 1000,2200 800,2200"/>
<poly id="poly_59" color="255,0,0,100" fill="1" layer="128.00" shape="800,2200 1000,2200 1000,2400 800,2400"/>
<poly id="poly_60" color="255,0,0,100" fill="1" layer="128.00" shape="1000,0 1200,0 1200,200 1000,200"/>
<poly id="poly_61" color="255,0,0,100" fill="1" layer="128.00" shape="1000,200 1200,200 1200,400 1000,400"/>
<poly id="poly_62" color="255,0,0,100" fill="1" layer="128.00" shape="1000,400 1200,400 1200,600 1000,600"/>
<poly id="poly_63" color="255,0,0,100" fill="1" layer="128.00" shape="1000,600 1200,600 1200,800 1000,800"/>
<poly id="poly_64" color="255,0,0,100" fill="1" layer="128.00" shape="1000,800 1200,800 1200,1000 1000,1000"/>
<poly id="poly_65" color="255,0,0,100" fill="1" layer="128.00" shape="1000,1000 1200,1000 1200,1200 1000,1200"/>
<poly id="poly_66" color="255,0,0,100" fill="1" layer="128.00" shape="1000,1200 1200,1200 1200,1400 1000,1400"/>
<poly id="poly_67" color="255,0,0,100" fill="1" layer="128.00" shape="1000,1400 1200,1400 1200,1600 1000,1600"/>
<poly id="poly_68" color="255,0,0,100" fill="1" layer="128.00" shape="1000,1600 1200,1600 1200,1800 1000,1800"/>
<poly id="poly_69" color="255,0,0,100" fill="1" layer="128.00" shape="1000,1800 1200,1800 1200,2000 1000,2000"/>
<poly id="poly_70" color="255,0,0,100" fill="1" layer="128.00" shape="1000,2000 1200,2000 1200,2200 1000,2200"/>
<poly id="poly_71" color="255,0,0,100" fill="1" layer="128.00" shape="1000,2200 1200,2200 1200,2400 1000,2400"/>
<poly id="poly_72" color="255,0,0,100" fill="1" layer="128.00" shape="1200,0 1400,0 1400,200 1200,200"/>
<poly id="poly_73" color="255,0,0,100" fill="1" layer="128.00" shape="1200,200 1400,200 1400,400 1200,400"/>
<poly id="poly_74" color="255,0,0,100" fill="1" layer="128.00" shape="1200,400 1400,400 1400,600 1200,600"/>
<poly id="poly_75" color="255,0,0,100" fill="1" layer="128.00" shape="1200,600 1400,600 1400,800 1200,800"/>
<poly id="poly_76" color="255,0,0,100" fill="1" layer="128.00" shape="1200,800 1400,800 1400,1000 1200,1000"/>
<poly id="poly_77" color="255,0,0,100" fill="1" layer="128.00" shape="1200,1000 1400,1000 1400,1200 1200,1200"/>
<poly id="poly_78" color="255,0,0,100" fill="1" layer="128.00" shape="1200,1200 1400,1200 1400,1400 1200,1400"/>
<poly id="poly_79" color="255,0,0,100" fill="1" layer="128.00" shape="1200,1400 1400,1400 1400,1600 1200,1600"/>
<poly id="poly_80" color="255,0,0,100" fill="1" layer="128.00" shape="1200,1600 1400,1600 1400,1800 1200,1800"/>
<poly id="poly_81" color="255,0,0,100" fill="1" layer="128.00" shape="1200,1800 1400,1800 1400,2000 1200,2000"/>
<poly id="poly_82" color="255,0,0,100" fill="1" layer="128.00" shape="1200,2000 1400,2000 1400,2200 1200,2200"/>
<poly id="poly_83" color="255,0,0,100" fill="1" layer="128.00" shape="1200,2200 1400,2200 1400,2400 1200,2400"/>
<poly id="poly_84" color="255,0,0,100" fill="1" layer="128.00" shape="1400,0 1600,0 1600,200 1400,200"/>
<poly id="poly_85" color="255,0,0,100" fill="1" layer="128.00" shape="1400,200 1600,200 1600,400 1400,400"/>
<poly id="poly_86" color="255,0,0,100" fill="1" layer="128.00" shape="1400,400 1600,400 1600,600 1400,600"/>
<poly id="poly_87" color="255,0,0,100" fill="1" layer="128.00" shape="1400,600 1600,600 1600,800 1400,800"/>
<poly id="poly_88" color="255,0,0,100" fill="1" layer="128.00" shape="1400,800 1600,800 1600,1000 1400,1000"/>
<poly id="poly_89" color="255,0,0,100" fill="1" layer="128.00" shape="1400,1000 1600,1000 1600,1200 1400,1200"/>
<poly id="poly_90" color="255,0,0,100" fill="1" layer="128.00" shape="1400,1200 1600,1200 1600,1400 1400,1400"/>
<poly id="poly_91" color="255,0,0,100" fill="1" layer="128.00" shape="1400,1400 1600,1400 1600,1600 1400,1600"/>
<poly id="poly_92" color="255,0,0,100" fill="1" layer="128.00" shape="1400,1600 1600,1600 1600,1800 1400,1800"/>
<poly id="poly_93" color="255,0,0,100" fill="1" layer="128.00" shape="1400,1800 1600,1800 1600,2000 1400,2000"/>
<poly id="poly_94" color="255,0,0,100" fill="1" layer="128.00" shape="1400,2000 1600,2000 1600,2200 1400,2200"/>
<poly id="poly_95" color="255,0,0,100" fill="1" layer="128.00" shape="1400,2200 1600,2200 1600,2400 1400,2400"/>
<poly id="poly_96" color="255,0,0,100" fill="1" layer="128.00" shape="1600,0 1800,0 1800,200 1600,200"/>
<poly id="poly_97" color="255,0,0,100" fill="1" layer="128.00" shape="1600,200 1800,200 1800,400 1600,400"/>
<poly id="poly_98" color="255,0,0,100" fill="1" layer="128.00" shape="1600,400 1800,400 1800,600 1600,600"/>
<poly id="poly_99" color="255,0,0,100" fill="1" layer="128.00" shape="1600,600 1800,600 1800,800 1600,800"/>
<poly id="poly_100" color="255,0,0,100" fill="1" layer="128.00" shape="1600,800 1800,800 1800,1000 1600,1000"/>
<poly id="poly_101" color="255,0,0,100" fill="1" layer="128.00" shape="1600,1000 1800,1000 1800,1200 1600,1200"/>
<poly id="poly_102" color="255,0,0,100" fill="1" layer="128.00" shape="1600,1200 1800,1200 1800,1400 1600,1400"/>
<poly id="poly_103" color="255,0,0,100" fill="1" layer="128.00" shape="1600,1400 1800,1400 1800,1600 1600,1600"/>
<poly id="poly_104" color="255,0,0,100" fill="1" layer="128.00" shape="1600,1600 1800,1600 1800,1800 1600,1800"/>
<poly id="poly_105" color="255,0,0,100" fill="1" layer="128.00" shape="1600,1800 1800,1800 1800,2000 1600,2000"/>
<poly id="poly_106" color="255,0,0,100" fill="1" layer="128.00" shape="1600,2000 1800,2000 1800,2200 1600,2200"/>
<poly id="poly_107" color="255,0,0,100" fill="1" layer="128.00" shape="1600,2200 1800,2200 1800,2400 1600,2400"/>
<poly id="poly_108" color="255,0,0,100" fill="1" layer="128.00" shape="1800,0 2000,0 2000,200 1800,200"/>
<poly id="poly_109" color="255,0,0,100" fill="1" layer="128.00" shape="1800,200 2000,200 2000,400 1800,400"/>
<poly id="poly_110" color="255,0,0,100" fill="1" layer="128.00" shape="1800,400 2000,400 2000,600 1800,600"/>
<poly id="poly_111" color="255,0,0,100" fill="1" layer="128.00" shape="1800,600 2000,600 2000,800 1800,800"/>
<poly id="poly_112" color="255,0,0,100" fill="1" layer="128.00" shape="1800,800 2000,800 2000,1000 1800,1000"/>
<poly id="poly_113" color="255,0,0,100" fill="1" layer="128.00" shape="1800,1000 2000,1000 2000,1200 1800,1200"/>
<poly id="poly_114" color="255,0,0,100" fill="1" layer="128.00" shape="1800,1200 2000,1200 2000,1400 1800,1400"/>
<poly id="poly_115" color="255,0,0,100" fill="1" layer="128.00" shape="1800,1400 2000,1400 2000,1600 1800,1600"/>
<poly id="poly_116" color="255,0,0,100" fill="1" layer="128.00" shape="1800,1600 2000,1600 2000,1800 1800,1800"/>
<poly id="poly_117" color="255,0,0,100" fill="1" layer="128.00" shape="1800,1800 2000,1800 2000,2000 1800,2000"/>
<poly id="poly_118" color="255,0,0,100" fill="1" layer="128.00" shape="1800,2000 2000,2000 2000,2200 1800,2200"/>
<poly id="poly_119" color="255,0,0,100" fill="1" layer="128.00" shape="1800,2200 2000,2200 2000,2400 1800,2400"/>
<poly id="poly_120" color="255,0,0,100" fill="1" layer="128.00" shape="2000,0 2200,0 2200,200 2000,200"/>
<poly id="poly_121" color="255,0,0,100" fill="1" layer="128.00" shape="2000,200 2200,200 2200,400 2000,400"/>
<poly id="poly_122" color="255,0,0,100" fill="1" layer="128.00" shape="2000,400 2200,400 2200,600 2000,600"/>
<poly id="poly_123" color="255,0,0,100" fill="1" layer="128.00" shape="2000,600 2200,600 2200,800 2000,800"/>
<poly id="poly_124" color="255,0,0,100" fill="1" layer="128.00" shape="2000,800 2200,800 2200,1000 2000,1000"/>
<poly id="poly_125" color="255,0,0,100" fill="1" layer="128.00" shape="2000,1000 2200,1000 2200,1200 2000,1200"/>
<poly id="poly_126" color="255,0,0,100" fill="1" layer="128.00" shape="2000,1200 2200,1200 2200,1400 2000,1400"/>
<poly id="poly_127" color="255,0,0,100" fill="1" layer="128.00" shape="2000,1400 2200,1400 2200,1600 2000,1600"/>
<poly id="poly_128" color="255,0,0,100" fill="1" layer="128.00" shape="2000,1600 2200,1600 2200,1800 2000,1800"/>
<poly id="poly_129" color="255,0,0,100" fill="1" layer="128.00" shape="2000,1800 2200,1800 2200,2000 2000,2000"/>
<poly id="poly_130" color="255,0,0,100" fill="1" layer="128.00" shape="2000,2000 2200,2000 2200,2200 2000,2200"/>
<poly id="poly_131" color="255,0,0,100" fill="1" layer="128.00" shape="2000,2200 2200,2200 2200,2400 2000,2400"/>
<poly id="poly_132" color="255,0,0,100" fill="1" layer="128.00" shape="2200,0 2400,0 2400,200 2200,200"/>
<poly id="poly_133" color="255,0,0,100" fill="1" layer="128.00" shape="2200,200 2400,200 2400,400 2200,400"/>
<poly id="poly_134" color="255,0,0,100" fill="1" layer="128.00" shape="2200,400 2400,400 2400,600 2200,600"/>
<poly id="poly_135" color="255,0,0,100" fill="1" layer="128.00" shape="2200,600 2400,600 2400,800 2200,800"/>
<poly id="poly_136" color="255,0,0,100" fill="1" layer="128.00" shape="2200,800 2400,800 2400,1000 2200,1000"/>
<poly id="poly_137" color="255,0,0,100" fill="1" layer="128.00" shape="2200,1000 2400,1000 2400,1200 2200,1200"/>
<poly id="poly_138" color="255,0,0,100" fill="1" layer="128.00" shape="2200,1200 2400,1200 2400,1400 2200,1400"/>
<poly id="poly_139" color="255,0,0,100" fill="1" layer="128.00" shape="2200,1400 2400,1400 2400,1600 2200,1600"/>
<poly id="poly_140" color="255,0,0,100" fill="1" layer="128.00" shape="2200,1600 2400,1600 2400,1800 2200,1800"/>
<poly id="poly_141" color="255,0,0,100" fill="1" layer="128.00" shape="2200,1800 2400,1800 2400,2000 2200,2000"/>
<poly id="poly_142" color="255,0,0,100" fill="1" layer="128.00" shape="2200,2000 2400,2000 2400,2200 2200,2200"/>
<poly id="poly_143" color="255,0,0,100" fill="1" layer="128.00" shape="2200,2200 2400,2200 2400,2400 2200,2400"/>
</additional>
