<?xml version="1.0" encoding="UTF-8"?>
<!-- generated on 2020-12-07 00:38:31.031751 by $Id$ v1_8_0+0069-6bdb3bd83f
  options: -n ./simulations/small_extended/osm.net.xml -t ./simulations/small_extended/polys.add.xml -o ./simulations/small_extended/districts.taz.xml
-->
<tazs xmlns:xsi="http://www.w3.org/2001/XMLSchema-instance" xsi:noNamespaceSchemaLocation="http://sumo.dlr.de/xsd/taz_file.xsd">
    <taz id="poly_100" color="255,0,0,100" edges="-296576678#1 -296576680#3 -624437995 295692545 296576677#0 296576679#0 438900529#0"/>
    <taz id="poly_101" color="255,0,0,100" edges="-165400234 -176690221#1 -18949537 -27601947 -295692545 -296556216#1 -318656081#3 15235421 16234307 165400234 169241041#0 176690221#0 176690222#1 176690222#3 18949537 295692545 296556216#0 296556219#0 30662363 318656081#0 438900529#0 4981504#0 60471392#0 744168638 744168641"/>
    <taz id="poly_102" color="255,0,0,100" edges="-27601947 60471392#0"/>
    <taz id="poly_116" color="255,0,0,100" edges="-296576678#1 -296576680#3 296576677#0 296576679#0"/>
    <taz id="poly_117" color="255,0,0,100" edges="-176690221#1 -176724388#2 -18949544 -18949545#1 -296206244#1 -296556213#1 -30662361#4 -30662364 165400232 176690221#0 176724388#0 18949544 18949545#0 22947419 296206244#0 296556213#0 296556219#0 30662361#0 30662362 30662363 30662364"/>
    <taz id="poly_118" color="255,0,0,100" edges="-27601947 60471392#0"/>
    <taz id="poly_131" color="255,0,0,100" edges="-165221455 -296576676#1 -5049400#2 -510239016#3 -5106153#4 13864691#0 165221455 295692544#0 5049400#0 5106153#0"/>
    <taz id="poly_132" color="255,0,0,100" edges="-19852375#1 -21870223#1 -296576676#1 -296576678#1 -296576680#3 -5049346#1 -5049346#4 -510239016#3 -5106153#4 -8051475#6 13854786#0 13864691#0 18953135#6 19852375#0 21870223#0 295692544#0 296576677#0 296576679#0 445395231#0 5049346#0 5049346#3 5106153#0 8051475#5"/>
    <taz id="poly_133" color="255,0,0,100" edges="-176724388#2 -18949545#1 -19852374#3 -19852375#1 -21870223#3 -227487138#2 -296556210#1 -30662364 -32652607#2 -32652608#1 -8051474#3 176724388#0 18949545#0 18953135#0 18953135#6 19852374#0 19852375#0 21870218#0 21870223#2 227487138#0 24017939#0 30662364 30770543#0 32652607#0 32652608#0 445395231#0 8051474#0"/>
    <taz id="poly_134" color="255,0,0,100" edges="-233574693#1 -30596405 -32652608#1 -759460659 -8051474#3 227487139#0 227487140#0 22947419 233574693#0 30596405 32652608#0 8051474#0"/>
    <taz id="poly_135" color="255,0,0,100" edges="-27601947 60471392#0"/>
    <taz id="poly_146" color="255,0,0,100" edges="-13636727#2 -201817818#1 13636727#2 13804116 201817818#0 5049348#0 5049348#1 5049349#0"/>
    <taz id="poly_147" color="255,0,0,100" edges="-13636727#1 -13636727#2 -5049350#3 -5049400#2 13636727#0 13636727#2 13804116 13804339#0 13804339#3 5049347#4 5049349#0 5049350#0 5049400#0 5049401#0"/>
    <taz id="poly_148" color="255,0,0,100" edges="-15429570#1 -15429577 -15429578#1 -30670371#2 -445395229#1 -510239016#3 -8051475#1 -8051475#4 -8051475#6 13864691#0 15429570#0 15429575#0 15429577 15429578#0 296576675 30670371#0 445395222 5049347#0 5049347#4 505301156 8051475#0 8051475#2 8051475#5"/>
    <taz id="poly_149" color="255,0,0,100" edges="-227487138#2 -445395229#1 -4981430#1 -55379622#2 215136485 227487138#0 302374777 302374778#0 302374780 445395222 4981430#0 5147959#0 55379622#0 744168644#0"/>
    <taz id="poly_150" color="255,0,0,100" edges="-179137922#3 -233574693#1 -30662365#1 -310980429#2 -32652606#3 -5000422#3 -505301155#1 -55379622#2 -759460659 179137922#0 227487139#0 227487140#0 233574693#0 32652606#0 4981272#0 4984535 5000422#0 55379622#0 729565370#0 744168637 744168644#0"/>
    <taz id="poly_152" color="255,0,0,100" edges="-27601947 60471392#0"/>
    <taz id="poly_160" color="255,0,0,100" edges="-33718247#1 -4973845#1 -4973845#4 33718247#0 4973760#0 4973845#0 4973845#2 55379623 718188323#0 718188323#1"/>
    <taz id="poly_161" color="255,0,0,100" edges="-2331704 -4990967#1 -4990967#3 4973760#0 4990967#0 4990967#2 55379623 718188323#1 7931045"/>
    <taz id="poly_162" color="255,0,0,100" edges="-201817818#1 -2331704 -301077360 201817818#0 301077360 41361081 445395223 7931045"/>
    <taz id="poly_163" color="255,0,0,100" edges="-445395227#1 -4973787#3 -5049350#3 301077361 301077362#0 41361081 41361089#3 445395223 445395227#0 4973559#0 4973559#2 4973787#0 5049350#0 5049401#0"/>
    <taz id="poly_164" color="255,0,0,100" edges="-15437168#1 -16558815#1 -30670371#2 -445395227#1 -4973787#3 -4973787#5 -4973787#8 15437168#0 16558815#0 301077362#0 445395227#0 4973787#0 4973787#4 4973787#6 4981431#0 4981432#5 505301156"/>
    <taz id="poly_165" color="255,0,0,100" edges="-154112808#6 -16558815#1 -178878603 -249388667#2 -4973787#8 -4981430#1 154112808#0 178878603 249388667#0 4973787#6 4981430#0"/>
    <taz id="poly_166" color="255,0,0,100" edges="-179137922#3 -249388667#2 -30670370#2 -310980429#2 179137922#0 249388667#0 30670370#0 4984535 5049343#0 505301141#0 55379625#0"/>
    <taz id="poly_167" color="255,0,0,100" edges="-30670370#2 -4973556#3 -4973556#6 -505301142#2 -505301143#2 30670370#0 4973556#0 4973556#4 505301142#0 505301143#0 8010118#0"/>
    <taz id="poly_168" color="255,0,0,100" edges="-27601947 60471392#0"/>
    <taz id="poly_169" color="255,0,0,100" edges="60471392#0"/>
    <taz id="poly_176" color="255,0,0,100" edges="-16189585#1 -4973845#4 -4990967#1 -5049351#1 -5122255#2 16189585#0 4973845#2 4990967#0 5049351#0 5122255#0"/>
    <taz id="poly_177" color="255,0,0,100" edges="-438901846#0 -4990967#1 -5049351#1 -5049351#2 4990967#0 5049351#0 5049351#2 5049351#4"/>
    <taz id="poly_179" color="255,0,0,100" edges="41361089#3"/>
    <taz id="poly_180" color="255,0,0,100" edges="-16558813#1 -16558813#3 -16558815#1 -16558815#2 -21303435 -41361088#1 -41361088#3 -5049341#0 -5049341#2 -759460634 16558813#0 16558813#2 16558813#4 16558815#0 16558815#2 21303435 41361088#0 41361088#2 41361089#3 41361089#6 4981432#0 4981432#2 4981432#3 4981432#5 5049341#0 5049341#1 9226774#0"/>
    <taz id="poly_181" color="255,0,0,100" edges="-154112808#6 -154112808#8 -16558813#1 -5049341#0 154112808#0 154112808#7 16558813#0 5049341#0 5049342#0 5049342#3 5049342#4 719037540#0 9226774#0"/>
    <taz id="poly_182" color="255,0,0,100" edges="-180066666#1 -744168635#2 180066666#0 301397683#0 5049343#0 719037540#0 744168635#0"/>
    <taz id="poly_183" color="255,0,0,100" edges="-29088848#2 -4973556#10 -4984536#3 -5049367#3 -505301143#2 -505301147#0 -505301147#1 -505301148 -505301149#2 -744168635#2 -7972019#1 238955997#0 29088848#0 4973556#7 4984536#0 505301143#0 505301144#0 505301145#0 505301147#0 505301147#1 505301148 505301149#0 505301150#0 505301151#0 609589075#0 744168635#0 7972019#0 9925453#0"/>
    <taz id="poly_184" color="255,0,0,100" edges="-15495876 -5004456 -505301148 15495876 176370880#0 176370880#1 500278224 500278225 500278226 500278227#0 5004456 505301148 746501175#1 98440390"/>
    <taz id="poly_185" color="255,0,0,100" edges="-27601947 60471392#0"/>
    <taz id="poly_193" color="255,0,0,100" edges="-438901846#0 -5049391#0 438901846#1 5049351#4"/>
    <taz id="poly_194" color="255,0,0,100" edges="-342168290#2 -5049391#0 438901846#1 5049391#1"/>
    <taz id="poly_195" color="255,0,0,100" edges="-23010935#5 -342168290#2 23010935#0 5049391#1"/>
    <taz id="poly_196" color="255,0,0,100" edges="-14508930#1 -14508930#2 -21303435 -22652739#3 -23010935#5 -240899432 -41361088#3 -5049356#5 14508930#0 14508930#2 21303435 22652739#0 23010935#0 302507420#0 41361088#2 5049356#0 9099248"/>
    <taz id="poly_197" color="255,0,0,100" edges="-154112808#8 -41361088#4 -41361088#6 -5049356#5 154112808#7 21309910#3 41361088#4 41361088#5 5049342#0 5049356#0 9099245 9099246#0 9099248"/>
    <taz id="poly_198" color="255,0,0,100" edges="-180066666#1 -180066666#4 -23044000#1 -5051193 -98440400#1 14154972 154109990#0 180066666#0 180066666#2 21309910#0 21309910#2 23044000#0 328061952#0 505301152#0 505301154#0 75313320#0 9099246#0 9099247#0 98440400#0"/>
    <taz id="poly_199" color="255,0,0,100" edges="-154112820#1 -328061950#2 -328061953#3 -4981346 -5049367#3 -5051196#0 -505301152#1 -9099244#2 154109990#0 154109991 154112820#0 328061950#0 4981346 5051196#1 505301151#0 505301152#0 505301153#0 9099244#0 9099247#0"/>
    <taz id="poly_20" color="255,0,0,100" edges="-101203188 23326767"/>
    <taz id="poly_200" color="255,0,0,100" edges="-15495876 -4984534 15495876 169348263#0 7972003#0 80865280#0"/>
    <taz id="poly_201" color="255,0,0,100" edges="-27601947 -4984534 60471392#0 80865280#0"/>
    <taz id="poly_202" color="255,0,0,100" edges="-27601947 -627542583 176370869 176370874 176370875#0 176370875#1 176370879 176374648#1 186176841#0 186176841#1 186176842 186176844 239963902#0 37524433#0 5056891 60471388 60471392#0 60471394#0 60520219#0 60520221 60673434 627542560#0 627542561 627542582 627542583 730037826"/>
    <taz id="poly_203" color="255,0,0,100" edges="239963902#0"/>
    <taz id="poly_21" color="255,0,0,100" edges="-101203188 -15235404 -190309447 -30490088 -431246732 -431246733#1 -431246785#1 15235403#0 15235403#1 15235404 176374651 186176847 190309447 23326767 30490088 431246732 431246733#0 431246785#0"/>
    <taz id="poly_213" color="255,0,0,100" edges="-240899432 -302507419#1 -5049356#5 302507419#0 302507420#0 5049356#0"/>
    <taz id="poly_214" color="255,0,0,100" edges="-302507418 -302507419#1 -342168271 -4981348 -5051193 199395260 21063788#0 302507418 302507419#0 328061951#3 342168271 342168272 342308746#0 342308747#0 717944155#0 717944155#1 717955853 717955854 75313320#0"/>
    <taz id="poly_215" color="255,0,0,100" edges="-4981346 4981346"/>
    <taz id="poly_216" color="255,0,0,100" edges="-29088844 -4981346 104290820#0 104290822#0 169348264#0 4981346 5107097 515073669#0 515073671#0 7972003#0"/>
    <taz id="poly_217" color="255,0,0,100" edges="-27601986 -4984534 176370865 176370867 176370871 176370876 27601986 37524432 37524433#0 37524434 515073669#0 515073671#0 515073682 515073684 80865280#0"/>
    <taz id="poly_218" color="255,0,0,100" edges="37524433#0 60520222#0 60673434 627542560#0 627542561 93266476#0"/>
    <taz id="poly_219" color="255,0,0,100" edges="60673434"/>
    <taz id="poly_230" color="255,0,0,100" edges="-4973730#1 21063788#0 328061951#3 4973730#0"/>
    <taz id="poly_231" color="255,0,0,100" edges="-4973730#1 21063788#0 21063788#3 238902679#3 328061951#3 4973730#0"/>
    <taz id="poly_232" color="255,0,0,100" edges="-23011074 -5049374#6 23011073#1 5049374#2 515073666#0 515073666#2"/>
    <taz id="poly_233" color="255,0,0,100" edges="-27601986 -4984534 27601986 37524435 515073666#0 515073666#2 561770405#1 561770407#0 561770410 80865280#0"/>
    <taz id="poly_247" color="255,0,0,100" edges="-23011073#0 -23011074 21063788#3 238902679#0 238902679#3 5049375#0 5049376#1 75429312#1"/>
    <taz id="poly_248" color="255,0,0,100" edges="-164481037#1 -164481041 -23011074 -238902657#2 -249470002 -5049374#6 23011073#1 238902657#0 238902665 238902679#0 238902682 249469998 249470002 4984745 5004452#0 5004452#1 5004452#2 5049374#2 5049374#7 5049375#0 539308469 717944153 717955855 75429312#1"/>
    <taz id="poly_249" color="255,0,0,100" edges="-243705727#1 -249470002 -308284426#1 -308284427#2 233981122 238086623 238086628 243705727#0 249470002 249470011 290003279 30677574 308284426#0 308284427#0 308284429#1 328241502 37524435 4983969#0 561770405#0 561770405#1 561770406 561770407#0 561770410 60660263 682854380 682854381 682854404 717944152 737126620 737126634 86166122"/>
    <taz id="poly_250" color="255,0,0,100" edges="-308284427#2 308284427#0"/>
    <taz id="poly_263" color="255,0,0,100" edges="238086623 290003280"/>
    <taz id="poly_264" color="255,0,0,100" edges="-238902685#1 -75313321#1 238086623 238902685#0 249469998 290003280 318656085 318656086 717944151 717944153 717944154 717955856 718188324"/>
    <taz id="poly_265" color="255,0,0,100" edges="-308284426#1 238086623 290003279 290003280 308284426#0"/>
    <taz id="poly_35" color="255,0,0,100" edges="-101203188 -23329938 -26813482 176374650#0 176374650#1 23326767 23329938 23329939 26813482"/>
    <taz id="poly_36" color="255,0,0,100" edges="-101203188 23326767"/>
    <taz id="poly_37" color="255,0,0,100" edges="-15235404 -15235411 15235404 15235411"/>
    <taz id="poly_5" color="255,0,0,100" edges="-190309447 190309447"/>
    <taz id="poly_51" color="255,0,0,100" edges="-23035952#3 -23035952#4 -23035972#1 -23329938 -617711514 23035952#0 23035952#4 23035972#0 23329938 617711514 617711517 617711518 617711519 617711520 727902835"/>
    <taz id="poly_52" color="255,0,0,100" edges="-224470082 -23036041#1 -23036041#5 -23036047#1 -23036048#3 -55379618#1 -686380239#2 -8585005#2 176064637#0 176064637#1 176064637#2 224470082 228255883#0 228255884#0 228255884#2 23036041#0 23036041#2 23036047#1 23036048#0 23329936 261607997#0 261607997#1 261607998 55379618#0 617711517 727900568 727902834 733747314 733747316 801412351 8585005#0"/>
    <taz id="poly_53" color="255,0,0,100" edges="-15235411 -23036041#5 -23036041#6 -23036048#3 -23036050 -23036085#1 -431246745 15235411 15235412#0 23036041#2 23036041#6 23036045#0 23036048#0 23036049 23036050 60471386"/>
    <taz id="poly_54" color="255,0,0,100" edges="15235412#0 60471386"/>
    <taz id="poly_66" color="255,0,0,100" edges="-23035952#4 -270122698#5 23035952#4 270122698#5"/>
    <taz id="poly_67" color="255,0,0,100" edges="-23035972#1 -270122698#1 -270122698#2 -270122698#4 23035972#0 270122698#0 270122698#2 270122698#4"/>
    <taz id="poly_68" color="255,0,0,100" edges="-19727592 -224470082 -270122698#1 -5058128#1 -8585005#2 -8585005#4 176690219#1 176690219#3 176690220#0 176690253#0 19727589#0 224470082 270122698#0 5058128#1 744168636#0 8585005#0 8585005#3"/>
    <taz id="poly_69" color="255,0,0,100" edges="-19727592 -23036046#0 -23036050 -27601947 -8585005#4 15235412#0 176690238#0 176690253#0 19727589#0 23036044#0 23036045#0 23036046#0 23036050 60471392#0"/>
    <taz id="poly_70" color="255,0,0,100" edges="60471386 60471392#0"/>
    <taz id="poly_84" color="255,0,0,100" edges="176690220#0"/>
    <taz id="poly_85" edges="-23036043#2 -27601947 15235421 176690218 176690222#1 179137924 23036043#0 23036044#0 270122696#1 60471392#0"/>
</tazs>
