<?xml version="1.0" encoding="UTF-8"?>

<!-- generated on Sa 05 Dez 2020 21:02:53 CET by Netedit Version 0.32.0
<?xml version="1.0" encoding="UTF-8"?>

<configuration xmlns:xsi="http://www.w3.org/2001/XMLSchema-instance" xsi:noNamespaceSchemaLocation="http://sumo.dlr.de/xsd/netconvertConfiguration.xsd">

    <input>
        <sumo-net-file value="simulations/small_extended/osm.net.xml"/>
    </input>

    <output>
        <output-file value="simulations/small_extended/osm.net.xml"/>
        <output.street-names value="true"/>
    </output>

    <processing>
        <no-turnarounds value="true"/>
        <offset.disable-normalization value="true"/>
        <lefthand value="false"/>
        <junctions.corner-detail value="5"/>
        <rectangular-lane-cut value="false"/>
        <walkingareas value="false"/>
    </processing>

    <visualisation>
        <registry-viewport value="true"/>
    </visualisation>

</configuration>
-->

<net version="0.27" junctionCornerDetail="5" xmlns:xsi="http://www.w3.org/2001/XMLSchema-instance" xsi:noNamespaceSchemaLocation="http://sumo.dlr.de/xsd/net_file.xsd">

    <location netOffset="-567508.90,-7033213.30" convBoundary="106.63,23.54,3593.64,2255.00" origBoundary="9.830000,63.380000,10.650000,63.600000" projParameter="+proj=utm +zone=32 +ellps=WGS84 +datum=WGS84 +units=m +no_defs"/>

    <type id="highway.bridleway" priority="1" numLanes="1" speed="2.78" allow="pedestrian" oneway="1" width="2.00"/>
    <type id="highway.bus_guideway" priority="1" numLanes="1" speed="27.78" allow="bus" oneway="1"/>
    <type id="highway.cycleway" priority="1" numLanes="1" speed="8.33" allow="bicycle" oneway="0" width="1.00"/>
    <type id="highway.footway" priority="1" numLanes="1" speed="2.78" allow="pedestrian" oneway="1" width="2.00"/>
    <type id="highway.ford" priority="1" numLanes="1" speed="2.78" allow="army" oneway="0"/>
    <type id="highway.living_street" priority="2" numLanes="1" speed="2.78" disallow="tram rail_urban rail rail_electric ship" oneway="0"/>
    <type id="highway.motorway" priority="14" numLanes="2" speed="39.44" allow="private emergency authority army vip passenger hov taxi bus coach delivery truck trailer motorcycle evehicle custom1 custom2" oneway="1"/>
    <type id="highway.motorway_link" priority="9" numLanes="1" speed="22.22" allow="private emergency authority army vip passenger hov taxi bus coach delivery truck trailer motorcycle evehicle custom1 custom2" oneway="1"/>
    <type id="highway.path" priority="1" numLanes="1" speed="2.78" allow="bicycle pedestrian" oneway="1" width="2.00"/>
    <type id="highway.pedestrian" priority="1" numLanes="1" speed="2.78" allow="pedestrian" oneway="1" width="2.00"/>
    <type id="highway.primary" priority="12" numLanes="2" speed="27.78" disallow="tram rail_urban rail rail_electric ship" oneway="0"/>
    <type id="highway.primary_link" priority="7" numLanes="1" speed="22.22" disallow="tram rail_urban rail rail_electric ship" oneway="0"/>
    <type id="highway.raceway" priority="15" numLanes="2" speed="83.33" allow="vip" oneway="0"/>
    <type id="highway.residential" priority="3" numLanes="1" speed="13.89" disallow="tram rail_urban rail rail_electric ship" oneway="0"/>
    <type id="highway.secondary" priority="11" numLanes="1" speed="27.78" disallow="tram rail_urban rail rail_electric ship" oneway="0"/>
    <type id="highway.secondary_link" priority="6" numLanes="1" speed="22.22" disallow="tram rail_urban rail rail_electric ship" oneway="0"/>
    <type id="highway.service" priority="1" numLanes="1" speed="5.56" allow="delivery bicycle pedestrian" oneway="0"/>
    <type id="highway.stairs" priority="1" numLanes="1" speed="1.39" allow="pedestrian" oneway="1" width="2.00"/>
    <type id="highway.step" priority="1" numLanes="1" speed="1.39" allow="pedestrian" oneway="1" width="2.00"/>
    <type id="highway.steps" priority="1" numLanes="1" speed="1.39" allow="pedestrian" oneway="1" width="2.00"/>
    <type id="highway.tertiary" priority="10" numLanes="1" speed="22.22" disallow="tram rail_urban rail rail_electric ship" oneway="0"/>
    <type id="highway.tertiary_link" priority="5" numLanes="1" speed="22.22" disallow="tram rail_urban rail rail_electric ship" oneway="0"/>
    <type id="highway.track" priority="1" numLanes="1" speed="5.56" disallow="tram rail_urban rail rail_electric ship" oneway="0"/>
    <type id="highway.trunk" priority="13" numLanes="2" speed="27.78" disallow="tram rail_urban rail rail_electric bicycle pedestrian ship" oneway="0"/>
    <type id="highway.trunk_link" priority="8" numLanes="1" speed="22.22" disallow="tram rail_urban rail rail_electric bicycle pedestrian ship" oneway="0"/>
    <type id="highway.unclassified" priority="4" numLanes="1" speed="13.89" disallow="tram rail_urban rail rail_electric ship" oneway="0"/>
    <type id="highway.unsurfaced" priority="1" numLanes="1" speed="8.33" disallow="tram rail_urban rail rail_electric ship" oneway="0"/>
    <type id="railway.highspeed" priority="21" numLanes="1" speed="69.44" allow="rail_electric" oneway="1"/>
    <type id="railway.light_rail" priority="19" numLanes="1" speed="27.78" allow="rail_urban" oneway="1"/>
    <type id="railway.preserved" priority="16" numLanes="1" speed="27.78" allow="rail" oneway="1"/>
    <type id="railway.rail" priority="20" numLanes="1" speed="44.44" allow="rail" oneway="1"/>
    <type id="railway.subway" priority="18" numLanes="1" speed="27.78" allow="rail_urban" oneway="1"/>
    <type id="railway.tram" priority="17" numLanes="1" speed="13.89" allow="tram" oneway="1"/>

    <edge id=":10137943_0" function="internal">
        <lane id=":10137943_0_0" index="0" disallow="tram rail_urban rail rail_electric ship" speed="27.78" length="7.46" shape="3177.45,1823.73 3176.41,1825.65 3176.02,1827.14 3175.63,1828.63 3174.58,1830.55"/>
    </edge>
    <edge id=":10137943_1" function="internal">
        <lane id=":10137943_1_0" index="0" disallow="tram rail_urban rail rail_electric ship" speed="27.78" length="6.84" shape="3169.34,1825.86 3171.15,1824.91 3172.42,1824.26 3173.50,1823.40 3174.74,1821.85"/>
    </edge>
    <edge id=":105200_0" function="internal">
        <lane id=":105200_0_0" index="0" disallow="tram rail_urban rail rail_electric ship" speed="8.33" length="5.00" shape="3093.96,1720.55 3092.59,1720.67 3091.60,1721.20 3090.96,1722.13 3090.70,1723.48"/>
    </edge>
    <edge id=":105200_1" function="internal">
        <lane id=":105200_1_0" index="0" disallow="tram rail_urban rail rail_electric ship" speed="8.33" length="10.26" shape="3093.96,1720.55 3091.19,1720.01 3089.25,1718.72 3088.12,1716.69 3087.81,1713.92"/>
    </edge>
    <edge id=":105200_2" function="internal">
        <lane id=":105200_2_0" index="0" disallow="tram rail_urban rail rail_electric ship" speed="8.33" length="5.02" shape="3091.10,1714.02 3091.26,1715.37 3091.81,1716.36 3092.77,1716.99 3094.13,1717.25"/>
    </edge>
    <edge id=":105200_3" function="internal">
        <lane id=":105200_3_0" index="0" disallow="tram rail_urban rail rail_electric ship" speed="8.33" length="9.46" shape="3091.10,1714.02 3090.70,1723.48"/>
    </edge>
    <edge id=":105200_4" function="internal">
        <lane id=":105200_4_0" index="0" disallow="tram rail_urban rail rail_electric ship" speed="8.33" length="9.38" shape="3087.40,1723.29 3087.81,1713.92"/>
    </edge>
    <edge id=":105200_5" function="internal">
        <lane id=":105200_5_0" index="0" disallow="tram rail_urban rail rail_electric ship" speed="8.33" length="10.31" shape="3087.40,1723.29 3087.95,1720.52 3089.26,1718.59 3091.32,1717.50 3094.13,1717.25"/>
    </edge>
    <edge id=":105513_0" function="internal">
        <lane id=":105513_0_0" index="0" disallow="tram rail_urban rail rail_electric ship" speed="13.89" length="6.15" shape="713.53,918.13 711.90,917.30 710.69,916.76 709.45,916.65 707.75,917.07"/>
    </edge>
    <edge id=":105513_1" function="internal">
        <lane id=":105513_1_0" index="0" disallow="tram rail_urban rail rail_electric ship" speed="18.05" length="10.44" shape="713.53,918.13 711.14,916.54 709.85,914.58 709.67,912.24 710.58,909.52"/>
    </edge>
    <edge id=":105513_2" function="internal">
        <lane id=":105513_2_0" index="0" disallow="tram rail_urban rail rail_electric ship" speed="18.05" length="5.03" shape="713.53,911.00 713.09,912.31 713.18,913.44 713.80,914.39 714.95,915.15"/>
    </edge>
    <edge id=":105513_3" function="internal">
        <lane id=":105513_3_0" index="0" disallow="tram rail_urban rail rail_electric ship" speed="18.05" length="8.75" shape="713.53,911.00 712.38,913.33 711.41,914.92 710.05,916.06 707.75,917.07"/>
    </edge>
    <edge id=":105513_4" function="internal">
        <lane id=":105513_4_0" index="0" disallow="tram rail_urban rail rail_electric ship" speed="18.05" length="6.20" shape="706.65,913.96 708.26,913.22 709.16,912.36 709.80,911.19 710.58,909.52"/>
    </edge>
    <edge id=":105513_5" function="internal">
        <lane id=":105513_5_0" index="0" disallow="tram rail_urban rail rail_electric ship" speed="13.89" length="8.77" shape="706.65,913.96 709.08,913.31 710.86,913.36 712.61,914.01 714.95,915.15"/>
    </edge>
    <edge id=":1073498465_0" function="internal">
        <lane id=":1073498465_0_0" index="0" disallow="tram rail_urban rail rail_electric ship" speed="25.00" length="5.02" shape="712.58,826.44 712.00,825.14 711.23,824.17 710.27,823.52 709.12,823.20"/>
    </edge>
    <edge id=":1073498465_1" function="internal">
        <lane id=":1073498465_1_0" index="0" disallow="tram rail_urban rail rail_electric ship" speed="27.78" length="5.55" shape="714.54,822.52 712.98,823.04 711.87,823.31 710.75,823.36 709.12,823.20"/>
    </edge>
    <edge id=":1074801729_0" function="internal">
        <lane id=":1074801729_0_0" index="0" disallow="tram rail_urban rail rail_electric ship" speed="13.89" length="9.64" shape="2754.93,1308.31 2752.52,1307.81 2750.80,1308.04 2749.08,1308.75 2746.67,1309.66"/>
        <lane id=":1074801729_0_1" index="1" disallow="tram rail_urban rail rail_electric ship" speed="13.89" length="9.64" shape="2755.93,1305.16 2752.95,1304.50 2750.82,1304.68 2748.68,1305.43 2745.69,1306.51"/>
    </edge>
    <edge id=":1074801729_2" function="internal">
        <lane id=":1074801729_2_0" index="0" disallow="tram rail_urban rail rail_electric ship" speed="13.89" length="8.50" shape="2755.93,1305.16 2752.93,1304.05 2750.83,1302.92 2749.61,1301.76 2749.28,1300.58"/>
    </edge>
    <edge id=":1074801773_0" function="internal">
        <lane id=":1074801773_0_0" index="0" disallow="tram rail_urban rail rail_electric ship" speed="13.89" length="11.03" shape="2766.69,1312.15 2763.90,1310.79 2761.99,1309.75 2760.01,1309.07 2756.99,1308.79"/>
        <lane id=":1074801773_0_1" index="1" disallow="tram rail_urban rail rail_electric ship" speed="13.89" length="11.03" shape="2767.98,1309.11 2764.84,1307.61 2762.68,1306.49 2760.44,1305.78 2757.05,1305.49"/>
    </edge>
    <edge id=":1074801773_2" function="internal">
        <lane id=":1074801773_2_0" index="0" disallow="tram rail_urban rail rail_electric ship" speed="13.89" length="8.96" shape="2765.61,1303.23 2763.03,1303.56 2761.33,1304.36 2759.63,1305.15 2757.05,1305.49"/>
    </edge>
    <edge id=":1077286388_0" function="internal">
        <lane id=":1077286388_0_0" index="0" disallow="tram rail_urban rail rail_electric ship" speed="27.78" length="0.28" shape="2972.93,1845.86 2972.64,1845.86"/>
    </edge>
    <edge id=":1077286388_1" function="internal">
        <lane id=":1077286388_1_0" index="0" disallow="tram rail_urban rail rail_electric ship" speed="27.78" length="0.30" shape="2972.52,1842.57 2972.82,1842.56"/>
    </edge>
    <edge id=":1077665381_0" function="internal">
        <lane id=":1077665381_0_0" index="0" disallow="tram rail_urban rail rail_electric ship" speed="13.89" length="5.22" shape="2528.15,2192.75 2526.97,2192.69 2525.81,2193.00 2524.69,2193.68 2523.58,2194.74"/>
    </edge>
    <edge id=":1077665381_1" function="internal">
        <lane id=":1077665381_1_0" index="0" disallow="tram rail_urban rail rail_electric ship" speed="13.89" length="5.71" shape="2528.15,2192.75 2526.51,2192.36 2525.42,2191.95 2524.42,2191.35 2523.02,2190.39"/>
    </edge>
    <edge id=":1077665407_0" function="internal">
        <lane id=":1077665407_0_0" index="0" disallow="tram rail_urban rail rail_electric bicycle pedestrian ship" speed="20.84" length="5.20" shape="2594.48,2137.97 2593.30,2137.07 2592.12,2136.59 2590.92,2136.51 2589.72,2136.84"/>
    </edge>
    <edge id=":1077665407_1" function="internal">
        <lane id=":1077665407_1_0" index="0" disallow="tram rail_urban rail rail_electric bicycle pedestrian ship" speed="20.84" length="7.51" shape="2594.48,2137.97 2592.24,2135.97 2590.47,2134.61 2589.19,2133.90 2588.39,2133.82"/>
    </edge>
    <edge id=":1077665407_2" function="internal">
        <lane id=":1077665407_2_0" index="0" disallow="tram rail_urban rail rail_electric bicycle pedestrian ship" speed="27.78" length="5.49" shape="2594.63,2133.58 2593.28,2134.71 2592.33,2135.46 2591.31,2136.09 2589.72,2136.84"/>
        <lane id=":1077665407_2_1" index="1" disallow="tram rail_urban rail rail_electric bicycle pedestrian ship" speed="27.78" length="5.49" shape="2592.56,2131.02 2591.41,2131.98 2590.60,2132.63 2589.73,2133.18 2588.39,2133.82"/>
    </edge>
    <edge id=":1077665421_0" function="internal">
        <lane id=":1077665421_0_0" index="0" disallow="tram rail_urban rail rail_electric ship" speed="13.89" length="5.91" shape="2520.50,2188.20 2519.52,2186.75 2518.87,2185.72 2518.40,2184.62 2517.90,2182.94"/>
    </edge>
    <edge id=":1077665421_1" function="internal">
        <lane id=":1077665421_1_0" index="0" disallow="tram rail_urban rail rail_electric ship" speed="13.89" length="5.48" shape="2516.15,2187.91 2517.14,2186.59 2517.77,2185.32 2518.02,2184.11 2517.90,2182.94"/>
    </edge>
    <edge id=":1077665436_0" function="internal">
        <lane id=":1077665436_0_0" index="0" disallow="tram rail_urban rail rail_electric bicycle pedestrian ship" speed="20.84" length="9.52" shape="2713.97,1957.53 2714.32,1960.04 2714.54,1961.85 2715.18,1963.42 2716.80,1965.18"/>
        <lane id=":1077665436_0_1" index="1" disallow="tram rail_urban rail rail_electric bicycle pedestrian ship" speed="20.84" length="9.52" shape="2710.73,1958.20 2711.24,1961.32 2711.62,1963.55 2712.54,1965.48 2714.63,1967.67"/>
    </edge>
    <edge id=":1077665436_2" function="internal">
        <lane id=":1077665436_2_0" index="0" disallow="tram rail_urban rail rail_electric bicycle pedestrian ship" speed="27.78" length="9.69" shape="2707.52,1961.35 2710.55,1961.54 2712.62,1962.07 2714.46,1963.21 2716.80,1965.18"/>
        <lane id=":1077665436_2_1" index="1" disallow="tram rail_urban rail rail_electric bicycle pedestrian ship" speed="27.78" length="9.69" shape="2706.52,1964.63 2709.16,1964.75 2710.98,1965.12 2712.60,1966.01 2714.63,1967.67"/>
    </edge>
    <edge id=":1077665448_0" function="internal">
        <lane id=":1077665448_0_0" index="0" disallow="tram rail_urban rail rail_electric bicycle pedestrian ship" speed="27.78" length="7.28" shape="2601.75,2112.59 2600.34,2114.63 2599.40,2116.40 2598.92,2117.89 2598.90,2119.12"/>
    </edge>
    <edge id=":1077665448_1" function="internal">
        <lane id=":1077665448_1_0" index="0" disallow="tram rail_urban rail rail_electric bicycle pedestrian ship" speed="27.78" length="10.03" shape="2599.11,2110.60 2597.34,2113.25 2596.17,2115.66 2595.61,2117.83 2595.66,2119.76"/>
    </edge>
    <edge id=":1077665448_2" function="internal">
        <lane id=":1077665448_2_0" index="0" disallow="tram rail_urban rail rail_electric bicycle pedestrian ship" speed="27.78" length="9.30" shape="2594.67,2110.53 2596.83,2112.41 2597.88,2114.13 2598.39,2116.19 2598.90,2119.12"/>
        <lane id=":1077665448_2_1" index="1" disallow="tram rail_urban rail rail_electric bicycle pedestrian ship" speed="27.78" length="9.30" shape="2591.72,2112.46 2593.63,2114.06 2594.64,2115.50 2595.18,2117.25 2595.66,2119.76"/>
    </edge>
    <edge id=":1078388837_0" function="internal">
        <lane id=":1078388837_0_0" index="0" disallow="tram rail_urban rail rail_electric ship" speed="13.89" length="3.75" shape="727.30,756.07 730.01,759.61"/>
        <lane id=":1078388837_0_1" index="1" disallow="tram rail_urban rail rail_electric ship" speed="13.89" length="3.75" shape="727.30,756.07 726.75,759.07"/>
    </edge>
    <edge id=":1078388837_2" function="internal">
        <lane id=":1078388837_2_0" index="0" disallow="tram rail_urban rail rail_electric ship" speed="13.89" length="3.79" shape="720.32,757.99 724.05,755.49"/>
        <lane id=":1078388837_2_1" index="1" disallow="tram rail_urban rail rail_electric ship" speed="13.89" length="3.79" shape="723.57,758.54 724.05,755.49"/>
    </edge>
    <edge id=":1078388889_0" function="internal">
        <lane id=":1078388889_0_0" index="0" disallow="tram rail_urban rail rail_electric ship" speed="22.22" length="5.17" shape="721.91,840.18 721.51,841.64 721.39,842.68 721.39,843.75 721.34,845.28"/>
    </edge>
    <edge id=":1078388889_1" function="internal">
        <lane id=":1078388889_1_0" index="0" disallow="tram rail_urban rail rail_electric ship" speed="22.22" length="3.77" shape="718.04,845.06 718.10,843.94 718.06,843.17 717.89,842.42 717.54,841.36"/>
    </edge>
    <edge id=":1139001891_0" function="internal">
        <lane id=":1139001891_0_0" index="0" disallow="tram rail_urban rail rail_electric ship" speed="27.78" length="5.33" shape="2368.48,1703.08 2366.90,1702.99 2365.81,1702.95 2364.73,1703.05 2363.20,1703.39"/>
    </edge>
    <edge id=":1139001891_1" function="internal">
        <lane id=":1139001891_1_0" index="0" disallow="tram rail_urban rail rail_electric ship" speed="27.78" length="3.64" shape="2364.99,1699.30 2368.60,1699.78"/>
    </edge>
    <edge id=":1139001891_2" function="internal">
        <lane id=":1139001891_2_0" index="0" disallow="tram rail_urban rail rail_electric ship" speed="27.78" length="6.00" shape="2364.99,1699.30 2368.52,1699.95 2369.40,1700.85 2368.44,1701.48"/>
    </edge>
    <edge id=":1139001891_3" function="internal">
        <lane id=":1139001891_3_0" index="0" speed="27.78" length="5.61" shape="2368.44,1701.48 2367.63,1702.00 2363.20,1703.39"/>
    </edge>
    <edge id=":1139002566_0" function="internal">
        <lane id=":1139002566_0_0" index="0" disallow="tram rail_urban rail rail_electric ship" speed="11.11" length="6.31" shape="2342.60,1577.20 2341.72,1575.45 2340.72,1574.15 2339.61,1573.29 2338.38,1572.86"/>
    </edge>
    <edge id=":1139002566_1" function="internal">
        <lane id=":1139002566_1_0" index="0" disallow="tram rail_urban rail rail_electric ship" speed="11.11" length="6.49" shape="2344.80,1573.76 2338.38,1572.86"/>
    </edge>
    <edge id=":1139002566_2" function="internal">
        <lane id=":1139002566_2_0" index="0" disallow="tram rail_urban rail rail_electric ship" speed="11.11" length="6.36" shape="2339.41,1566.34 2345.67,1567.21"/>
        <lane id=":1139002566_2_1" index="1" disallow="tram rail_urban rail rail_electric ship" speed="11.11" length="6.36" shape="2338.89,1569.60 2345.23,1570.48"/>
    </edge>
    <edge id=":1139392922_0" function="internal">
        <lane id=":1139392922_0_0" index="0" disallow="tram rail_urban rail rail_electric ship" speed="8.34" length="0.31" shape="1797.50,1229.23 1797.22,1229.09"/>
    </edge>
    <edge id=":1139392922_1" function="internal">
        <lane id=":1139392922_1_0" index="0" disallow="tram rail_urban rail rail_electric ship" speed="8.34" length="0.29" shape="1798.73,1226.15 1798.99,1226.28"/>
    </edge>
    <edge id=":1203329904_0" function="internal">
        <lane id=":1203329904_0_0" index="0" disallow="tram rail_urban rail rail_electric ship" speed="20.84" length="9.64" shape="2623.71,1685.81 2622.88,1683.09 2622.09,1681.25 2620.86,1679.71 2618.73,1677.86"/>
    </edge>
    <edge id=":1203329904_1" function="internal">
        <lane id=":1203329904_1_0" index="0" disallow="tram rail_urban rail rail_electric ship" speed="20.84" length="9.51" shape="2626.88,1684.87 2625.76,1682.24 2624.59,1680.58 2623.52,1678.90 2622.71,1676.20"/>
        <lane id=":1203329904_1_1" index="1" disallow="tram rail_urban rail rail_electric ship" speed="20.84" length="9.51" shape="2626.88,1684.87 2626.29,1682.19 2626.22,1680.29 2626.26,1678.37 2625.96,1675.62"/>
    </edge>
    <edge id=":1203329911_0" function="internal">
        <lane id=":1203329911_0_0" index="0" disallow="tram rail_urban rail rail_electric ship" speed="27.78" length="7.09" shape="2604.89,1671.47 2602.55,1670.94 2600.61,1670.70 2599.07,1670.78 2597.93,1671.16"/>
    </edge>
    <edge id=":1203329911_1" function="internal">
        <lane id=":1203329911_1_0" index="0" disallow="tram rail_urban rail rail_electric ship" speed="27.78" length="7.43" shape="2604.33,1667.39 2597.93,1671.16"/>
    </edge>
    <edge id=":1203329991_0" function="internal">
        <lane id=":1203329991_0_0" index="0" disallow="tram rail_urban rail rail_electric ship" speed="8.33" length="4.53" shape="2892.32,1797.46 2891.14,1797.57 2890.14,1797.98 2889.33,1798.69 2888.70,1799.70"/>
    </edge>
    <edge id=":1203329991_1" function="internal">
        <lane id=":1203329991_1_0" index="0" disallow="tram rail_urban rail rail_electric ship" speed="8.33" length="5.13" shape="2887.29,1793.98 2892.41,1794.16"/>
    </edge>
    <edge id=":128170443_0" function="internal">
        <lane id=":128170443_0_0" index="0" disallow="tram rail_urban rail rail_electric ship" speed="8.33" length="5.03" shape="1623.71,961.61 1623.44,960.26 1622.80,959.32 1621.80,958.80 1620.42,958.69"/>
    </edge>
    <edge id=":128170443_1" function="internal">
        <lane id=":128170443_1_0" index="0" disallow="tram rail_urban rail rail_electric ship" speed="8.33" length="10.41" shape="1623.71,961.61 1623.96,958.76 1625.06,956.69 1627.02,955.40 1629.83,954.89"/>
    </edge>
    <edge id=":128170443_2" function="internal">
        <lane id=":128170443_2_0" index="0" disallow="tram rail_urban rail rail_electric ship" speed="8.33" length="5.02" shape="1629.96,958.19 1628.60,958.43 1627.66,959.06 1627.12,960.05 1627.01,961.43"/>
    </edge>
    <edge id=":128170443_3" function="internal">
        <lane id=":128170443_3_0" index="0" disallow="tram rail_urban rail rail_electric ship" speed="8.33" length="9.55" shape="1629.96,958.19 1620.42,958.69"/>
    </edge>
    <edge id=":128170443_4" function="internal">
        <lane id=":128170443_4_0" index="0" disallow="tram rail_urban rail rail_electric ship" speed="8.33" length="6.57" shape="1624.72,951.97 1625.13,953.32 1626.12,954.25 1627.69,954.78 1629.83,954.89"/>
    </edge>
    <edge id=":128170443_5" function="internal">
        <lane id=":128170443_5_0" index="0" disallow="tram rail_urban rail rail_electric ship" speed="8.33" length="9.78" shape="1624.72,951.97 1625.20,954.81 1625.90,956.70 1626.59,958.58 1627.01,961.43"/>
    </edge>
    <edge id=":128170443_6" function="internal">
        <lane id=":128170443_6_0" index="0" disallow="tram rail_urban rail rail_electric ship" speed="8.33" length="9.06" shape="1624.72,951.97 1624.64,954.79 1623.89,956.85 1622.49,958.15 1620.42,958.69"/>
    </edge>
    <edge id=":128170443_7" function="internal">
        <lane id=":128170443_7_0" index="0" disallow="tram rail_urban rail rail_electric ship" speed="8.33" length="9.65" shape="1620.20,955.40 1629.83,954.89"/>
    </edge>
    <edge id=":128170443_8" function="internal">
        <lane id=":128170443_8_0" index="0" disallow="tram rail_urban rail rail_electric ship" speed="8.33" length="10.40" shape="1620.20,955.40 1623.04,955.61 1625.12,956.69 1626.44,958.63 1627.01,961.43"/>
    </edge>
    <edge id=":128735020_0" function="internal">
        <lane id=":128735020_0_0" index="0" disallow="tram rail_urban rail rail_electric ship" speed="8.33" length="6.19" shape="1913.44,643.98 1907.27,643.60"/>
    </edge>
    <edge id=":128735020_1" function="internal">
        <lane id=":128735020_1_0" index="0" disallow="tram rail_urban rail rail_electric ship" speed="8.33" length="5.00" shape="1910.55,640.69 1910.27,642.03 1909.63,642.96 1908.63,643.49 1907.27,643.60"/>
    </edge>
    <edge id=":128735534_0" function="internal">
        <lane id=":128735534_0_0" index="0" disallow="tram rail_urban rail rail_electric ship" speed="8.33" length="6.14" shape="1912.87,559.47 1918.97,560.12"/>
    </edge>
    <edge id=":128735534_1" function="internal">
        <lane id=":128735534_1_0" index="0" disallow="tram rail_urban rail rail_electric ship" speed="8.33" length="5.03" shape="1912.87,559.47 1914.16,559.83 1915.05,560.54 1915.55,561.58 1915.65,562.97"/>
    </edge>
    <edge id=":132920995_0" function="internal">
        <lane id=":132920995_0_0" index="0" disallow="tram rail_urban rail rail_electric ship" speed="12.50" length="5.32" shape="1736.10,1196.63 1734.69,1196.08 1733.54,1196.17 1732.67,1196.91 1732.06,1198.30"/>
    </edge>
    <edge id=":132920995_1" function="internal">
        <lane id=":132920995_1_0" index="0" disallow="tram rail_urban rail rail_electric ship" speed="13.89" length="11.01" shape="1736.10,1196.63 1726.39,1191.42"/>
    </edge>
    <edge id=":132920995_2" function="internal">
        <lane id=":132920995_2_0" index="0" disallow="tram rail_urban rail rail_electric ship" speed="12.50" length="11.73" shape="1736.10,1196.63 1733.56,1194.72 1732.02,1192.44 1731.46,1189.77 1731.90,1186.73"/>
    </edge>
    <edge id=":132920995_3" function="internal">
        <lane id=":132920995_3_0" index="0" disallow="tram rail_urban rail rail_electric ship" speed="12.50" length="7.26" shape="1735.07,1187.64 1734.81,1189.51 1735.16,1191.15 1736.13,1192.57 1737.72,1193.76"/>
    </edge>
    <edge id=":132920995_4" function="internal">
        <lane id=":132920995_4_0" index="0" disallow="tram rail_urban rail rail_electric ship" speed="11.11" length="11.07" shape="1735.07,1187.64 1732.06,1198.30"/>
    </edge>
    <edge id=":132920995_5" function="internal">
        <lane id=":132920995_5_0" index="0" disallow="tram rail_urban rail rail_electric ship" speed="12.50" length="5.39" shape="1735.07,1187.64 1733.76,1190.55 1732.08,1191.98"/>
    </edge>
    <edge id=":132920995_12" function="internal">
        <lane id=":132920995_12_0" index="0" speed="12.50" length="5.94" shape="1732.08,1191.98 1731.87,1192.15 1729.42,1192.44 1726.39,1191.42"/>
    </edge>
    <edge id=":132920995_6" function="internal">
        <lane id=":132920995_6_0" index="0" disallow="tram rail_urban rail rail_electric ship" speed="12.50" length="5.24" shape="1727.89,1188.48 1729.28,1188.95 1730.42,1188.82 1731.29,1188.08 1731.90,1186.73"/>
    </edge>
    <edge id=":132920995_7" function="internal">
        <lane id=":132920995_7_0" index="0" disallow="tram rail_urban rail rail_electric ship" speed="13.89" length="11.16" shape="1727.89,1188.48 1737.72,1193.76"/>
    </edge>
    <edge id=":132920995_8" function="internal">
        <lane id=":132920995_8_0" index="0" disallow="tram rail_urban rail rail_electric ship" speed="12.50" length="11.71" shape="1727.89,1188.48 1730.41,1190.24 1731.95,1192.46 1732.50,1195.15 1732.06,1198.30"/>
    </edge>
    <edge id=":132920995_9" function="internal">
        <lane id=":132920995_9_0" index="0" disallow="tram rail_urban rail rail_electric ship" speed="12.50" length="7.12" shape="1728.88,1197.42 1729.16,1195.49 1728.83,1193.84 1727.91,1192.49 1726.39,1191.42"/>
    </edge>
    <edge id=":132920995_10" function="internal">
        <lane id=":132920995_10_0" index="0" disallow="tram rail_urban rail rail_electric ship" speed="11.11" length="11.11" shape="1728.88,1197.42 1731.90,1186.73"/>
    </edge>
    <edge id=":132920995_11" function="internal">
        <lane id=":132920995_11_0" index="0" disallow="tram rail_urban rail rail_electric ship" speed="12.50" length="5.55" shape="1728.88,1197.42 1730.21,1194.38 1731.91,1192.94"/>
    </edge>
    <edge id=":132920995_13" function="internal">
        <lane id=":132920995_13_0" index="0" speed="12.50" length="6.11" shape="1731.91,1192.94 1732.13,1192.76 1734.63,1192.55 1737.72,1193.76"/>
    </edge>
    <edge id=":142655238_0" function="internal">
        <lane id=":142655238_0_0" index="0" disallow="tram rail_urban rail rail_electric ship" speed="11.11" length="20.13" shape="2412.55,964.34 2404.76,945.78"/>
    </edge>
    <edge id=":142655238_1" function="internal">
        <lane id=":142655238_1_0" index="0" disallow="tram rail_urban rail rail_electric ship" speed="11.11" length="20.09" shape="2407.91,944.82 2408.59,949.27 2408.74,954.78 2408.80,960.31 2409.22,964.83"/>
    </edge>
    <edge id=":142655238_2" function="internal">
        <lane id=":142655238_2_0" index="0" disallow="tram rail_urban rail rail_electric ship" speed="11.11" length="19.01" shape="2405.83,964.73 2405.44,960.37 2405.46,955.21 2405.40,950.07 2404.76,945.78"/>
    </edge>
    <edge id=":142655243_0" function="internal">
        <lane id=":142655243_0_0" index="0" disallow="tram rail_urban rail rail_electric ship" speed="11.11" length="4.93" shape="2514.77,1330.89 2513.63,1331.55 2512.95,1332.43 2512.74,1333.54 2513.01,1334.88"/>
    </edge>
    <edge id=":142655243_1" function="internal">
        <lane id=":142655243_1_0" index="0" disallow="tram rail_urban rail rail_electric ship" speed="11.11" length="9.61" shape="2508.44,1326.50 2509.08,1329.26 2509.14,1331.23 2509.22,1333.21 2509.89,1335.96"/>
    </edge>
    <edge id=":150833350_0" function="internal">
        <lane id=":150833350_0_0" index="0" disallow="tram rail_urban rail rail_electric bicycle pedestrian ship" speed="20.84" length="5.25" shape="372.32,1083.89 372.06,1082.39 371.50,1081.24 370.62,1080.45 369.43,1080.01"/>
    </edge>
    <edge id=":150833350_1" function="internal">