<additional>
<inductionLoop id="65625V41945_1" lane="236638831#0_0" pos="0" type="in-between" freq="1" file="inductiondetections.tmp.xml"/>
<inductionLoop id="65625V41945_2" lane="236638830#0_0" pos="0" type="in-between" freq="1" file="inductiondetections.tmp.xml"/>
<inductionLoop id="46684V1842951_1" lane="60472440_0" pos="0" type="in-between" freq="1" file="inductiondetections.tmp.xml"/>
<inductionLoop id="46684V1842951_2" lane="60672590_0" pos="0" type="in-between" freq="1" file="inductiondetections.tmp.xml"/>
<inductionLoop id="81077V72158_1" lane="37524433#0_0" pos="0" type="in-between" freq="1" file="inductiondetections.tmp.xml"/>
<inductionLoop id="81077V72158_2" lane="93266476#0_0" pos="0" type="in-between" freq="1" file="inductiondetections.tmp.xml"/>
<inductionLoop id="81077V72158_3" lane="37524433#0_1" pos="0" type="in-between" freq="1" file="inductiondetections.tmp.xml"/>
<inductionLoop id="81077V72158_4" lane="93266476#0_1" pos="0" type="in-between" freq="1" file="inductiondetections.tmp.xml"/>
<inductionLoop id="10236V72161_1" lane="328061951#3_0" pos="0" type="in-between" freq="1" file="inductiondetections.tmp.xml"/>
<inductionLoop id="10236V72161_2" lane="21063788#0_0" pos="0" type="in-between" freq="1" file="inductiondetections.tmp.xml"/>
<inductionLoop id="10236V72161_3" lane="328061951#3_1" pos="0" type="in-between" freq="1" file="inductiondetections.tmp.xml"/>
<inductionLoop id="10236V72161_4" lane="21063788#0_1" pos="0" type="in-between" freq="1" file="inductiondetections.tmp.xml"/>
<inductionLoop id="63028V72219_1" lane="4999143_0" pos="0" type="in-between" freq="1" file="inductiondetections.tmp.xml"/>
<inductionLoop id="88356V72157_1" lane="505301148_0" pos="0" type="in-between" freq="1" file="inductiondetections.tmp.xml"/>
<inductionLoop id="88356V72157_2" lane="-505301148_2" pos="0" type="in-between" freq="1" file="inductiondetections.tmp.xml"/>
<inductionLoop id="88356V72157_4" lane="-505301148_1" pos="0" type="in-between" freq="1" file="inductiondetections.tmp.xml"/>
<inductionLoop id="88356V72157_6" lane="-505301148_0" pos="0" type="in-between" freq="1" file="inductiondetections.tmp.xml"/>
<inductionLoop id="44656V72812_1" lane="-51972126#2_0" pos="0" type="in-between" freq="1" file="inductiondetections.tmp.xml"/>
<inductionLoop id="44656V72812_2" lane="51972126#2_0" pos="0" type="in-between" freq="1" file="inductiondetections.tmp.xml"/>
<inductionLoop id="44656V72812_3" lane="-51972126#2_1" pos="0" type="in-between" freq="1" file="inductiondetections.tmp.xml"/>
<inductionLoop id="44656V72812_4" lane="51972126#2_1" pos="0" type="in-between" freq="1" file="inductiondetections.tmp.xml"/>
<inductionLoop id="94210V2411536_1" lane="190438939_0" pos="0" type="in-between" freq="1" file="inductiondetections.tmp.xml"/>
<inductionLoop id="94210V2411536_2" lane="282657544_0" pos="0" type="in-between" freq="1" file="inductiondetections.tmp.xml"/>
<inductionLoop id="94210V2411536_3" lane="190438939_1" pos="0" type="in-between" freq="1" file="inductiondetections.tmp.xml"/>
<inductionLoop id="94210V2411536_4" lane="282657544_1" pos="0" type="in-between" freq="1" file="inductiondetections.tmp.xml"/>
<inductionLoop id="06970V72811_1" lane="18668209#1_0" pos="0" type="in-between" freq="1" file="inductiondetections.tmp.xml"/>
<inductionLoop id="06970V72811_2" lane="81064215_0" pos="0" type="in-between" freq="1" file="inductiondetections.tmp.xml"/>
<inductionLoop id="06970V72811_3" lane="18668209#1_1" pos="0" type="in-between" freq="1" file="inductiondetections.tmp.xml"/>
<inductionLoop id="06970V72811_4" lane="81064215_1" pos="0" type="in-between" freq="1" file="inductiondetections.tmp.xml"/>
<inductionLoop id="06970V72811_5" lane="18668209#1_2" pos="0" type="in-between" freq="1" file="inductiondetections.tmp.xml"/>
<inductionLoop id="06970V72811_6" lane="81064215_2" pos="0" type="in-between" freq="1" file="inductiondetections.tmp.xml"/>
<inductionLoop id="44660V72811_1" lane="19750535_0" pos="0" type="in-between" freq="1" file="inductiondetections.tmp.xml"/>
<inductionLoop id="44660V72811_2" lane="192071666_0" pos="0" type="in-between" freq="1" file="inductiondetections.tmp.xml"/>
<inductionLoop id="44660V72811_3" lane="19750535_1" pos="0" type="in-between" freq="1" file="inductiondetections.tmp.xml"/>
<inductionLoop id="44660V72811_4" lane="192071666_1" pos="0" type="in-between" freq="1" file="inductiondetections.tmp.xml"/>
<inductionLoop id="36935V72359_1" lane="23188739#0_0" pos="0" type="in-between" freq="1" file="inductiondetections.tmp.xml"/>
<inductionLoop id="36935V72359_2" lane="-23188739#1_0" pos="0" type="in-between" freq="1" file="inductiondetections.tmp.xml"/>
<inductionLoop id="27372V72852_1" lane="224470082_0" pos="0" type="in-between" freq="1" file="inductiondetections.tmp.xml"/>
<inductionLoop id="27372V72852_2" lane="-224470082_0" pos="0" type="in-between" freq="1" file="inductiondetections.tmp.xml"/>
<inductionLoop id="04211V1677432_1" lane="431246732_0" pos="0" type="in-between" freq="1" file="inductiondetections.tmp.xml"/>
<inductionLoop id="04211V1677432_2" lane="-431246732_0" pos="0" type="in-between" freq="1" file="inductiondetections.tmp.xml"/>
<inductionLoop id="21801V72158_1" lane="4981346_0" pos="0" type="in-between" freq="1" file="inductiondetections.tmp.xml"/>
<inductionLoop id="21801V72158_2" lane="-29088844_0" pos="0" type="in-between" freq="1" file="inductiondetections.tmp.xml"/>
<inductionLoop id="06750V2429605_1" lane="155898973#0_0" pos="0" type="in-between" freq="1" file="inductiondetections.tmp.xml"/>
<inductionLoop id="06750V2429605_2" lane="-155898975_0" pos="0" type="in-between" freq="1" file="inductiondetections.tmp.xml"/>
<inductionLoop id="06750V2429605_3" lane="155898973#0_1" pos="0" type="in-between" freq="1" file="inductiondetections.tmp.xml"/>
<inductionLoop id="06750V2429605_4" lane="-155898975_1" pos="0" type="in-between" freq="1" file="inductiondetections.tmp.xml"/>
<inductionLoop id="75341V41863_1" lane="20563888_0" pos="0" type="in-between" freq="1" file="inductiondetections.tmp.xml"/>
<inductionLoop id="75341V41863_2" lane="-20563888_0" pos="0" type="in-between" freq="1" file="inductiondetections.tmp.xml"/>
<inductionLoop id="20570V72811_1" lane="328061955-AddedOnRampEdge_1" pos="0" type="in-between" freq="1" file="inductiondetections.tmp.xml"/>
<inductionLoop id="20570V72811_2" lane="191676961_0" pos="0" type="in-between" freq="1" file="inductiondetections.tmp.xml"/>
<inductionLoop id="20570V72811_3" lane="328061955-AddedOnRampEdge_2" pos="0" type="in-between" freq="1" file="inductiondetections.tmp.xml"/>
<inductionLoop id="20570V72811_4" lane="191676961_1" pos="0" type="in-between" freq="1" file="inductiondetections.tmp.xml"/>
<inductionLoop id="34938V72813_1" lane="-606062486#1_0" pos="0" type="in-between" freq="1" file="inductiondetections.tmp.xml"/>
<inductionLoop id="34938V72813_2" lane="606062486#0_0" pos="0" type="in-between" freq="1" file="inductiondetections.tmp.xml"/>
<inductionLoop id="30904V72218_1" lane="4999142_0" pos="0" type="in-between" freq="1" file="inductiondetections.tmp.xml"/>
<inductionLoop id="17961V72812_1" lane="16190491_0" pos="0" type="in-between" freq="1" file="inductiondetections.tmp.xml"/>
<inductionLoop id="17961V72812_2" lane="718188321_0" pos="0" type="in-between" freq="1" file="inductiondetections.tmp.xml"/>
<inductionLoop id="17961V72812_3" lane="16190491_1" pos="0" type="in-between" freq="1" file="inductiondetections.tmp.xml"/>
<inductionLoop id="17961V72812_4" lane="718188321_1" pos="0" type="in-between" freq="1" file="inductiondetections.tmp.xml"/>
<inductionLoop id="17961V72812_5" lane="16190491_2" pos="0" type="in-between" freq="1" file="inductiondetections.tmp.xml"/>
<inductionLoop id="17961V72812_6" lane="718188321_2" pos="0" type="in-between" freq="1" file="inductiondetections.tmp.xml"/>
<inductionLoop id="40649V2411511_1" lane="285538056_0" pos="0" type="in-between" freq="1" file="inductiondetections.tmp.xml"/>
<inductionLoop id="77022V72359_1" lane="-198515223#6_0" pos="0" type="in-between" freq="1" file="inductiondetections.tmp.xml"/>
<inductionLoop id="77022V72359_2" lane="198515223#3_0" pos="0" type="in-between" freq="1" file="inductiondetections.tmp.xml"/>
<inductionLoop id="03476V41818_1" lane="-190404207#2_0" pos="0" type="in-between" freq="1" file="inductiondetections.tmp.xml"/>
<inductionLoop id="03476V41818_2" lane="190404207#0_0" pos="0" type="in-between" freq="1" file="inductiondetections.tmp.xml"/>
<inductionLoop id="04300V72813_1" lane="238902685#0_0" pos="0" type="in-between" freq="1" file="inductiondetections.tmp.xml"/>
<inductionLoop id="04300V72813_3" lane="-238902685#1_0" pos="0" type="in-between" freq="1" file="inductiondetections.tmp.xml"/>
<inductionLoop id="16219V72812_1" lane="-301077360_0" pos="0" type="in-between" freq="1" file="inductiondetections.tmp.xml"/>
<inductionLoop id="16219V72812_2" lane="301077360_0" pos="0" type="in-between" freq="1" file="inductiondetections.tmp.xml"/>
<inductionLoop id="16219V72812_3" lane="-301077360_1" pos="0" type="in-between" freq="1" file="inductiondetections.tmp.xml"/>
<inductionLoop id="16219V72812_4" lane="301077360_1" pos="0" type="in-between" freq="1" file="inductiondetections.tmp.xml"/>
<inductionLoop id="78492V2394249_1" lane="285538049_0" pos="0" type="in-between" freq="1" file="inductiondetections.tmp.xml"/>
<inductionLoop id="78492V2394249_2" lane="251410714_0" pos="0" type="in-between" freq="1" file="inductiondetections.tmp.xml"/>
<inductionLoop id="78492V2394249_3" lane="285538049_1" pos="0" type="in-between" freq="1" file="inductiondetections.tmp.xml"/>
<inductionLoop id="78492V2394249_4" lane="251410714_1" pos="0" type="in-between" freq="1" file="inductiondetections.tmp.xml"/>
<inductionLoop id="44210V2411509_1" lane="251410712_0" pos="0" type="in-between" freq="1" file="inductiondetections.tmp.xml"/>
<inductionLoop id="35002V72811_1" lane="191676959_0" pos="0" type="in-between" freq="1" file="inductiondetections.tmp.xml"/>
<inductionLoop id="35002V72811_2" lane="191839025_0" pos="0" type="in-between" freq="1" file="inductiondetections.tmp.xml"/>
<inductionLoop id="35002V72811_3" lane="191676959_1" pos="0" type="in-between" freq="1" file="inductiondetections.tmp.xml"/>
<inductionLoop id="35002V72811_4" lane="191839025_1" pos="0" type="in-between" freq="1" file="inductiondetections.tmp.xml"/>
<inductionLoop id="21571V2394246_1" lane="290003278_0" pos="0" type="in-between" freq="1" file="inductiondetections.tmp.xml"/>
<inductionLoop id="21571V2394246_3" lane="290003278_1" pos="0" type="in-between" freq="1" file="inductiondetections.tmp.xml"/>
<inductionLoop id="81008V41567_1" lane="-4973733#2_0" pos="0" type="in-between" freq="1" file="inductiondetections.tmp.xml"/>
<inductionLoop id="81008V41567_2" lane="4973733#0_0" pos="0" type="in-between" freq="1" file="inductiondetections.tmp.xml"/>
<inductionLoop id="73951V2394243_1" lane="682854403_0" pos="0" type="in-between" freq="1" file="inductiondetections.tmp.xml"/>
<inductionLoop id="73951V2394243_3" lane="682854403_1" pos="0" type="in-between" freq="1" file="inductiondetections.tmp.xml"/>
</additional>
