<?xml version="1.0" encoding="UTF-8"?>
<!-- generated on 2020-06-12 13:25:29.546436 by edgesInDistricts.py UNKNOWN
  options: -n simulations/small_extended/osm.net.xml -t simulations/small_extended/polys.add.xml -o simulations/small_extended/districts.taz.xml
-->
<tazs xmlns:xsi="http://www.w3.org/2001/XMLSchema-instance" xsi:noNamespaceSchemaLocation="http://sumo.dlr.de/xsd/taz_file.xsd">
    <taz id="poly_103" edges="-101203188 23326767"/>
    <taz id="poly_104" edges="-101203188 23326767"/>
    <taz id="poly_106" edges="-15235404 -15235411 15235404 15235411"/>
    <taz id="poly_107" edges="-15235411"/>
    <taz id="poly_126" edges="-26813482 26813482"/>
    <taz id="poly_127" edges="-101203188 -23329938 -26813482 176374650#0 176374650#1 23326767 23329938 23329939 26813482"/>
    <taz id="poly_131" edges="-15235411 -190309445#0 -450371154 15235411 23036085#2 450371154"/>
    <taz id="poly_151" edges="-23329938 23329938 617711517 617711518"/>
    <taz id="poly_152" edges="617711517 727900568 733747314"/>
    <taz id="poly_153" edges="-23036041#1 -23036041#5 -23036047#1 -55379618#1 23036041#0 23036041#2 23036047#1 55379618#0"/>
    <taz id="poly_154" edges="-23036041#5 23036041#2"/>
    <taz id="poly_155" edges="-15235411 -23036041#5 -23036041#6 -23036085#1 -431246745 -450371153 15235411 15235412#0 450371153 60471386"/>
    <taz id="poly_156" edges="60471386"/>
    <taz id="poly_174" edges="-23035952#3 -23035952#4 -23035972#1 23035952#0 23035952#4 23035972#0"/>
    <taz id="poly_175" edges="-23035952#3 -617711514 23035952#0 617711514 617711518 617711519 617711520 727902835"/>
    <taz id="poly_176" edges="-224470082 -686380239#2 176064637#0 176064637#1 176064637#2 224470082 228255883#0 228255884#0 228255884#2 23329936 261607997#0 261607997#1 261607998 727900568 727902834 733747314 733747316 801412351"/>
    <taz id="poly_177" edges="-23036047#1 -23036048#3 -55379618#1 -686380239#2 -8585005#2 23036047#1 23036048#0 261607998 55379618#0 8585005#0"/>
    <taz id="poly_178" edges="-23036048#3 23036048#0 23036050"/>
    <taz id="poly_179" edges="-23036050 15235412#0 23036041#2 23036041#6 23036045#0 23036049"/>
    <taz id="poly_180" edges="15235412#0 60471386"/>
    <taz id="poly_197" edges="-23035952#4 -270122698#5 23035952#4 270122698#5"/>
    <taz id="poly_198" edges="-23035972#1 -270122698#4 23035972#0 270122698#4"/>
    <taz id="poly_199" edges="-270122698#1 -270122698#2 270122698#0 270122698#2"/>
    <taz id="poly_200" edges="-224470082 -270122698#1 270122698#0"/>
    <taz id="poly_201" edges="-8585005#2 176690219#3 224470082 744168636#0 8585005#0"/>
    <taz id="poly_202" edges="-19727592 -23036050 19727589#0 23036050"/>
    <taz id="poly_203" edges="-23036046#0 -27601947 15235412#0 23036044#0 23036045#0 23036046#0"/>
    <taz id="poly_204" edges="60471386 60471392#0"/>
    <taz id="poly_221" edges="-270122698#5 270122698#5"/>
    <taz id="poly_224" edges="-270122698#1 270122698#0"/>
    <taz id="poly_225" edges="-19727592 -270122698#1 -5058128#1 -8585005#2 -8585005#4 176690219#1 176690219#3 176690220#0 176690253#0 19727589#0 270122698#0 5058128#1 744168636#0 8585005#0 8585005#3"/>
    <taz id="poly_226" edges="-19727592 -8585005#4 176690238#0 176690253#0 19727589#0"/>
    <taz id="poly_227" edges="-27601947 23036044#0 60471392#0"/>
    <taz id="poly_249" edges="176690220#0"/>
    <taz id="poly_250" edges="-23036043#2 15235421 176690218 176690222#1 179137924 23036043#0 23036044#0 270122696#1"/>
    <taz id="poly_251" edges="-27601947 60471392#0"/>
    <taz id="poly_274" edges="15235421 176690222#1"/>
    <taz id="poly_275" edges="-27601947 60471392#0"/>
    <taz id="poly_297" edges="-624437995 295692545 438900529#0"/>
    <taz id="poly_298" edges="-18949537 -295692545 -318656081#3 15235421 16234307 169241041#0 176690222#1 176690222#3 18949537 295692545 318656081#0 438900529#0 4981504#0 744168638"/>
    <taz id="poly_299" edges="-27601947 16234307 60471392#0 744168641"/>
    <taz id="poly_321" edges="-296576678#1 -296576680#3 -624437995 296576677#0 296576679#0 438900529#0"/>
    <taz id="poly_322" edges="-165400234 -176690221#1 -18949537 165400234 176690221#0 176690222#3 18949537 30662363 4981504#0"/>
    <taz id="poly_323" edges="-296556216#1 296556216#0 296556219#0 744168641"/>
    <taz id="poly_324" edges="-27601947 60471392#0"/>
    <taz id="poly_345" edges="-296576678#1 -296576680#3 296576677#0 296576679#0"/>
    <taz id="poly_346" edges="-176690221#1 -296206244#1 176690221#0 296206244#0"/>
    <taz id="poly_347" edges="-18949544 -30662361#4 165400232 18949544 296556219#0 30662361#0 30662362 30662363"/>
    <taz id="poly_349" edges="-27601947 60471392#0"/>
    <taz id="poly_35" edges="-190309447 190309447"/>
    <taz id="poly_368" edges="-296576678#1 296576677#0"/>
    <taz id="poly_369" edges="-296576680#3 296576679#0"/>
    <taz id="poly_370" edges="-176690221#1 -176724388#2 -18949545#1 176690221#0 176724388#0 18949545#0"/>
    <taz id="poly_371" edges="-18949545#1 -296556213#1 -30662361#4 -30662364 18949545#0 22947419 296556213#0 296556219#0 30662361#0 30662364"/>
    <taz id="poly_373" edges="-27601947 60471392#0"/>
    <taz id="poly_391" edges="-296576676#1 -5106153#4 295692544#0 5106153#0"/>
    <taz id="poly_392" edges="-296576676#1 -296576678#1 -5106153#4 13854786#0 295692544#0 296576677#0 5106153#0"/>
    <taz id="poly_393" edges="-21870223#1 -296576680#3 -5049346#4 13854786#0 21870223#0 296576679#0 5049346#3"/>
    <taz id="poly_394" edges="-176724388#2 -18949545#1 -19852374#3 -21870223#3 176724388#0 18949545#0 19852374#0 21870223#2"/>
    <taz id="poly_395" edges="-296556210#1 -30662364 24017939#0 30662364"/>
    <taz id="poly_396" edges="22947419"/>
    <taz id="poly_398" edges="-27601947 60471392#0"/>
    <taz id="poly_414" edges="-165221455 165221455"/>
    <taz id="poly_415" edges="-165221455 -296576676#1 -5049400#2 -510239016#3 13864691#0 165221455 295692544#0 5049400#0"/>
    <taz id="poly_416" edges="-510239016#3 13864691#0"/>
    <taz id="poly_417" edges="-19852375#1 -5049346#1 -5049346#4 -510239016#3 -8051475#6 13864691#0 18953135#6 19852375#0 445395231#0 5049346#0 5049346#3 8051475#5"/>
    <taz id="poly_418" edges="-176724388#2 -19852374#3 -19852375#1 -227487138#2 176724388#0 18953135#0 18953135#6 19852374#0 19852375#0 21870218#0 227487138#0 30770543#0 445395231#0"/>
    <taz id="poly_419" edges="-227487138#2 -296556210#1 -32652607#2 -32652608#1 24017939#0 32652607#0 32652608#0 8051474#0"/>
    <taz id="poly_420" edges="-233574693#1 -30596405 -32652608#1 -8051474#3 227487139#0 22947419 233574693#0 30596405 32652608#0 8051474#0"/>
    <taz id="poly_421" edges="-759460659 227487140#0"/>
    <taz id="poly_423" edges="-27601947 60471392#0"/>
    <taz id="poly_437" edges="-13636727#2 13636727#2 5049348#0"/>
    <taz id="poly_438" edges="-13636727#1 -13636727#2 13636727#0 13636727#2 13804339#3"/>
    <taz id="poly_439" edges="-13636727#1 -5049400#2 13636727#0 5049347#4 5049400#0 5049401#0"/>
    <taz id="poly_440" edges="-510239016#3 13864691#0 15429575#0 296576675 5049347#0 5049347#4"/>
    <taz id="poly_441" edges="-8051475#4 -8051475#6 5049347#0 8051475#2 8051475#5"/>
    <taz id="poly_443" edges="-227487138#2 227487138#0 302374777 302374778#0 5147959#0 744168644#0"/>
    <taz id="poly_444" edges="-233574693#1 -30662365#1 -32652606#3 227487139#0 233574693#0 32652606#0 729565370#0 744168644#0"/>
    <taz id="poly_445" edges="-759460659 227487140#0 4981272#0"/>
    <taz id="poly_448" edges="-27601947 60471392#0"/>
    <taz id="poly_461" edges="-201817818#1 13804116 201817818#0 5049348#0 5049348#1 5049349#0"/>
    <taz id="poly_462" edges="-5049350#3 13804116 13804339#0 13804339#3 5049349#0 5049350#0"/>
    <taz id="poly_463" edges="5049401#0"/>
    <taz id="poly_464" edges="-15429570#1 -15429577 -15429578#1 -30670371#2 15429570#0 15429575#0 15429577 15429578#0 296576675 30670371#0"/>
    <taz id="poly_465" edges="-15429570#1 -30670371#2 -445395229#1 -8051475#1 15429570#0 30670371#0 445395222 8051475#0"/>
    <taz id="poly_466" edges="-445395229#1 445395222"/>
    <taz id="poly_467" edges="-4981430#1 -55379622#2 215136485 302374777 302374778#0 302374780 4981430#0 55379622#0"/>
    <taz id="poly_468" edges="-179137922#3 -30662365#1 -505301155#1 -55379622#2 179137922#0 55379622#0 729565370#0 744168637"/>
    <taz id="poly_469" edges="-310980429#2 -5000422#3 -505301155#1 4981272#0 4984535 5000422#0 744168637"/>
    <taz id="poly_472" edges="-27601947 60471392#0"/>
    <taz id="poly_473" edges="-27601947 60471392#0"/>
    <taz id="poly_482" edges="-2331704 55379623 718188323#1 7931045"/>
    <taz id="poly_484" edges="-2331704 -301077360 301077360 7931045"/>
    <taz id="poly_485" edges="-201817818#1 -301077360 201817818#0 301077360 41361081 445395223"/>
    <taz id="poly_486" edges="-5049350#3 301077361 41361081 445395223 5049350#0"/>
    <taz id="poly_487" edges="-445395227#1 301077361 301077362#0 41361081 445395227#0 4973559#0 4973559#2 5049401#0"/>
    <taz id="poly_488" edges="-15437168#1 -30670371#2 -445395227#1 15437168#0 301077362#0 445395227#0"/>
    <taz id="poly_489" edges="-15437168#1 15437168#0 4981431#0 505301156"/>
    <taz id="poly_490" edges="178878603"/>
    <taz id="poly_491" edges="-178878603 -249388667#2 -4981430#1 178878603 249388667#0 4981430#0"/>
    <taz id="poly_492" edges="-179137922#3 -249388667#2 179137922#0 249388667#0 5049343#0 55379625#0"/>
    <taz id="poly_493" edges="-30670370#2 -310980429#2 30670370#0 4984535 505301141#0 55379625#0"/>
    <taz id="poly_494" edges="-30670370#2 -4973556#3 -505301142#2 4973556#0 505301142#0"/>
    <taz id="poly_495" edges="-4973556#3 4973556#0"/>
    <taz id="poly_497" edges="-27601947 60471392#0"/>
    <taz id="poly_504" edges="-33718247#1 33718247#0"/>
    <taz id="poly_505" edges="-33718247#1 -4973845#1 -4973845#4 33718247#0 4973760#0 4973845#0 4973845#2 55379623 718188323#0 718188323#1"/>
    <taz id="poly_506" edges="-4990967#1 -4990967#3 4973760#0 4990967#0 4990967#2 718188323#1"/>
    <taz id="poly_511" edges="-4973787#3 41361089#3 4973559#2 4973787#0"/>
    <taz id="poly_512" edges="-4973787#3 4973787#0"/>
    <taz id="poly_513" edges="-16558815#1 -4973787#3 -4973787#5 16558815#0 4973787#0 4973787#4 4981431#0 4981432#5"/>
    <taz id="poly_514" edges="-154112808#6 -16558815#1 -4973787#8 154112808#0 4973787#6"/>
    <taz id="poly_518" edges="-30670370#2 -505301143#2 30670370#0 505301143#0 8010118#0"/>
    <taz id="poly_519" edges="-4973556#3 -4973556#6 4973556#0 4973556#4 8010118#0"/>
    <taz id="poly_521" edges="-27601947 60471392#0"/>
    <taz id="poly_522" edges="60471392#0"/>
    <taz id="poly_529" edges="-4973845#4 -4990967#1 4973845#2 4990967#0"/>
    <taz id="poly_530" edges="-4990967#1 4990967#0"/>
    <taz id="poly_535" edges="41361089#3"/>
    <taz id="poly_536" edges="-759460634 16558813#4 41361089#3 41361089#6"/>
    <taz id="poly_537" edges="-16558813#1 -16558813#3 -16558815#1 -16558815#2 -5049341#0 -5049341#2 -759460634 16558813#0 16558813#2 16558813#4 16558815#0 16558815#2 4981432#2 4981432#3 4981432#5 5049341#0 5049341#1 9226774#0"/>
    <taz id="poly_538" edges="-154112808#6 -16558813#1 -5049341#0 154112808#0 16558813#0 5049341#0 5049342#3 5049342#4"/>
    <taz id="poly_540" edges="5049343#0"/>
    <taz id="poly_542" edges="-29088848#2 -505301143#2 29088848#0 505301143#0 505301144#0 505301145#0 609589075#0 9925453#0"/>
    <taz id="poly_543" edges="-4973556#10 4973556#7 609589075#0"/>
    <taz id="poly_546" edges="-27601947 60471392#0"/>
    <taz id="poly_552" edges="-16189585#1 16189585#0"/>
    <taz id="poly_553" edges="-4973845#4 -4990967#1 -5049351#1 -5122255#2 4973845#2 4990967#0 5049351#0 5122255#0"/>
    <taz id="poly_554" edges="-438901846#0 -5049351#1 -5049351#2 5049351#0 5049351#2 5049351#4"/>
    <taz id="poly_560" edges="-41361088#1 41361088#0 41361089#6"/>
    <taz id="poly_561" edges="-21303435 -41361088#1 -41361088#3 21303435 41361088#0 41361088#2 4981432#0"/>
    <taz id="poly_562" edges="-154112808#6 -154112808#8 154112808#0 154112808#7 5049342#0 719037540#0 9226774#0"/>
    <taz id="poly_563" edges="719037540#0"/>
    <taz id="poly_564" edges="-180066666#1 180066666#0 301397683#0 5049343#0 719037540#0"/>
    <taz id="poly_565" edges="-744168635#2 301397683#0 744168635#0"/>
    <taz id="poly_566" edges="-744168635#2 505301144#0 505301145#0 505301150#0 505301151#0 744168635#0 9925453#0"/>
    <taz id="poly_567" edges="-4973556#10 -4984536#3 -5049367#3 -505301147#0 -505301147#1 -505301148 -505301149#2 -7972019#1 238955997#0 4973556#7 4984536#0 505301147#0 505301147#1 505301148 505301149#0 7972019#0"/>
    <taz id="poly_568" edges="-5004456 -505301148 15495876 176370880#0 500278224 500278225 500278226 5004456 505301148 746501175#1 98440390"/>
    <taz id="poly_569" edges="-15495876 176370880#1 500278227#0 746501175#1"/>
    <taz id="poly_570" edges="-27601947 60471392#0"/>
    <taz id="poly_571" edges="-27601947 60471392#0"/>
    <taz id="poly_578" edges="5049351#4"/>
    <taz id="poly_579" edges="-438901846#0 -5049391#0 438901846#1 5049351#4"/>
    <taz id="poly_58" edges="-30490088 -431246733#1 30490088 431246733#0"/>
    <taz id="poly_580" edges="-342168290#2 -5049391#0 438901846#1 5049391#1"/>
    <taz id="poly_585" edges="-14508930#1 -14508930#2 -21303435 -41361088#3 14508930#0 14508930#2 21303435 41361088#2 9099248"/>
    <taz id="poly_586" edges="-154112808#8 -41361088#4 -41361088#6 154112808#7 21309910#3 41361088#4 41361088#5 5049342#0 9099245 9099246#0 9099248"/>
    <taz id="poly_587" edges="21309910#3"/>
    <taz id="poly_588" edges="-180066666#1 -180066666#4 -98440400#1 14154972 154109990#0 180066666#0 180066666#2 21309910#2 328061952#0 9099246#0"/>
    <taz id="poly_589" edges="154109990#0"/>
    <taz id="poly_59" edges="-190309447 -431246733#1 190309447 431246733#0"/>
    <taz id="poly_590" edges="-154112820#1 -5049367#3 -505301152#1 154109990#0 154109991 154112820#0 505301151#0 505301152#0"/>
    <taz id="poly_591" edges="-328061950#2 328061950#0"/>
    <taz id="poly_593" edges="-15495876 15495876"/>
    <taz id="poly_595" edges="-27601947 60471392#0"/>
    <taz id="poly_596" edges="-27601947 -627542583 60471392#0 627542583"/>
    <taz id="poly_598" edges="239963902#0"/>
    <taz id="poly_605" edges="-342168290#2 5049391#1"/>
    <taz id="poly_606" edges="-23010935#5 -342168290#2 23010935#0 5049391#1"/>
    <taz id="poly_607" edges="-23010935#5 23010935#0"/>
    <taz id="poly_608" edges="-22652739#3 -23010935#5 22652739#0 23010935#0"/>
    <taz id="poly_609" edges="-22652739#3 -240899432 22652739#0 302507420#0 5049356#0"/>
    <taz id="poly_610" edges="-5049356#5 5049356#0"/>
    <taz id="poly_612" edges="-23044000#1 -98440400#1 21309910#0 21309910#2 23044000#0 98440400#0"/>
    <taz id="poly_613" edges="-23044000#1 -5051193 21309910#0 23044000#0 328061952#0 505301152#0 505301154#0 75313320#0 9099247#0"/>
    <taz id="poly_614" edges="-328061953#3 -5051196#0 -505301152#1 -9099244#2 5051196#1 505301152#0 505301153#0 9099244#0 9099247#0"/>
    <taz id="poly_615" edges="-154112820#1 -328061950#2 -328061953#3 -4981346 154112820#0 328061950#0 4981346 5051196#1"/>
    <taz id="poly_616" edges="169348263#0"/>
    <taz id="poly_617" edges="-15495876 -4984534 15495876 169348263#0 7972003#0 80865280#0"/>
    <taz id="poly_618" edges="-4984534 80865280#0"/>
    <taz id="poly_620" edges="-627542583 37524433#0 60520221 60673434 627542561 627542582 627542583"/>
    <taz id="poly_621" edges="176370869 176370874 176370875#0 176370875#1 176370879 176374648#1 186176841#0 186176841#1 186176842 186176844 239963902#0 37524433#0 5056891 60471388 60471394#0 60520219#0 60520221 627542560#0 627542582 730037826"/>
    <taz id="poly_622" edges="239963902#0"/>
    <taz id="poly_634" edges="-240899432 -5049356#5 302507420#0"/>
    <taz id="poly_635" edges="-240899432 -302507419#1 -5049356#5 302507419#0 302507420#0 5049356#0"/>
    <taz id="poly_637" edges="-4981348 -5051193 199395260 75313320#0"/>
    <taz id="poly_639" edges="-4981346 4981346"/>
    <taz id="poly_640" edges="-29088844 -4981346 104290820#0 104290822#0 169348264#0 4981346 5107097 515073669#0 515073671#0 7972003#0"/>
    <taz id="poly_641" edges="515073671#0"/>
    <taz id="poly_642" edges="-4984534 515073669#0 515073671#0 80865280#0"/>
    <taz id="poly_643" edges="176370865 176370876 37524433#0 515073669#0"/>
    <taz id="poly_644" edges="37524433#0 93266476#0"/>
    <taz id="poly_645" edges="60520222#0 60673434 627542560#0 627542561 93266476#0"/>
    <taz id="poly_646" edges="60673434"/>
    <taz id="poly_660" edges="-302507418 -302507419#1 302507418 302507419#0 342308747#0 717944155#0 717944155#1"/>
    <taz id="poly_661" edges="-342168271 -4981348 199395260 21063788#0 328061951#3 342168271 342168272 342308746#0 342308747#0 717955853 717955854"/>
    <taz id="poly_667" edges="-27601986 176370867 176370871 27601986 37524432 37524434 515073669#0 515073671#0 515073682 515073684"/>
    <taz id="poly_685" edges="21063788#0 328061951#3"/>
    <taz id="poly_686" edges="21063788#0 328061951#3"/>
    <taz id="poly_688" edges="-23011074 23011073#1"/>
    <taz id="poly_689" edges="-5049374#1 -5049374#6 5049374#2 515073666#2"/>
    <taz id="poly_690" edges="-4984534 -5049374#1 -515073666#1 515073666#0 515073666#2 80865280#0"/>
    <taz id="poly_691" edges="-27601986 27601986 37524435 561770410"/>
    <taz id="poly_709" edges="-4973730#1 4973730#0"/>
    <taz id="poly_710" edges="-4973730#1 21063788#3 238902679#3 4973730#0"/>
    <taz id="poly_711" edges="238902679#3"/>
    <taz id="poly_712" edges="-23011074 23011073#1"/>
    <taz id="poly_713" edges="-5049374#6 5049374#2"/>
    <taz id="poly_714" edges="-4984534 37524435 561770405#1 561770407#0 561770410 80865280#0"/>
    <taz id="poly_715" edges="37524435"/>
    <taz id="poly_735" edges="-23011073#0 -23011074 21063788#3 238902679#0 238902679#3 5049375#0 5049376#1 75429312#1"/>
    <taz id="poly_736" edges="-164481041 -23011074 23011073#1 5049375#0"/>
    <taz id="poly_737" edges="-164481037#1 -164481041 -238902657#2 -5049374#6 238902657#0 5049374#2 5049374#7 5049375#0"/>
    <taz id="poly_738" edges="-243705727#1 233981122 243705727#0 30677574 328241502 37524435 4983969#0 561770405#0 561770405#1 561770407#0 682854404 717944152"/>
    <taz id="poly_739" edges="-308284427#2 249470011 308284427#0 308284429#1 561770410 60660263 682854380 682854381 737126620 737126634"/>
    <taz id="poly_740" edges="-308284427#2 308284427#0"/>
    <taz id="poly_760" edges="238902679#0 238902682 75429312#1"/>
    <taz id="poly_761" edges="-238902657#2 -249470002 238902657#0 238902665 238902679#0 249469998 249470002 4984745 5004452#0 5004452#1 5004452#2 539308469 717944153 717955855"/>
    <taz id="poly_762" edges="-249470002 233981122 238086623 238086628 249470002 290003279 30677574 561770405#0 561770406 86166122"/>
    <taz id="poly_763" edges="-308284426#1 -308284427#2 238086628 308284426#0 308284427#0 60660263"/>
    <taz id="poly_783" edges="238086623 290003280"/>
    <taz id="poly_784" edges="238086623 290003280"/>
    <taz id="poly_785" edges="-238902685#1 238086623 238902685#0 249469998 290003280 318656085 318656086 717944151 717944153 717944154 717955856"/>
    <taz id="poly_786" edges="238086623 290003279 290003280"/>
    <taz id="poly_787" edges="-308284426#1 308284426#0"/>
    <taz id="poly_806" edges="238086623 290003280"/>
    <taz id="poly_807" edges="238086623 290003280"/>
    <taz id="poly_809" edges="-238902685#1 -75313321#1 238902685#0 718188324"/>
    <taz id="poly_81" edges="-101203188 23326767"/>
    <taz id="poly_82" edges="-101203188 -15235404 -30490088 -431246732 -431246785#1 15235403#0 15235403#1 15235404 176374651 186176847 23326767 30490088 431246732 431246785#0"/>
    <taz id="poly_83" edges="-431246785#1 431246785#0"/>
    <taz id="poly_833" edges="-75313321#1 718188324"/>
    <taz id="poly_857" edges="-75313321#1 718188324"/>
</tazs>
