<?xml version="1.0" encoding="UTF-8"?>
<!-- generated on 2020-05-13 23:21:55.614205 by edgesInDistricts.py UNKNOWN
  options: -n simulations/small_extended/osm.net.xml -t simulations/small_extended/polys.add.xml -o simulations/small_extended/districts.taz.xml
-->
<tazs xmlns:xsi="http://www.w3.org/2001/XMLSchema-instance" xsi:noNamespaceSchemaLocation="http://sumo.dlr.de/xsd/taz_file.xsd">
    <taz id="poly_111" edges="-23036043#2 15235421 176690218 176690222#1 179137924 23036043#0 23036044#0 270122696#1"/>
    <taz id="poly_112" edges="-27601947 60471392#0"/>
    <taz id="poly_128" edges="-165400234 -176690221#1 -18949537 -295692545 -296206244#1 -296576678#1 -296576680#3 -318656081#3 -624437995 16234307 165400234 169241041#0 176690221#0 176690222#3 18949537 295692545 296576677#0 296576679#0 30662363 318656081#0 438900529#0 4981504#0 744168638"/>
    <taz id="poly_129" edges="-27601947 -296556216#1 16234307 165400232 296556216#0 296556219#0 30662363 60471392#0 744168641"/>
    <taz id="poly_144" edges="-296576676#1 -296576678#1 -5106153#4 13854786#0 295692544#0 296576677#0 5106153#0"/>
    <taz id="poly_145" edges="-176690221#1 -176724388#2 -18949545#1 -21870223#1 -21870223#3 -296206244#1 -296576678#1 -296576680#3 13854786#0 176690221#0 176724388#0 18949545#0 21870223#0 21870223#2 296206244#0 296576677#0 296576679#0"/>
    <taz id="poly_146" edges="-18949544 -18949545#1 -296556213#1 -30662361#4 -30662364 165400232 18949544 18949545#0 22947419 296556213#0 296556219#0 30662361#0 30662362 30662364"/>
    <taz id="poly_147" edges="-27601947 60471392#0"/>
    <taz id="poly_160" edges="-165221455 165221455"/>
    <taz id="poly_161" edges="-165221455 -296576676#1 -5049400#2 -510239016#3 13864691#0 165221455 295692544#0 5049400#0"/>
    <taz id="poly_162" edges="-176724388#2 -19852374#3 -19852375#1 -227487138#2 -5049346#1 -5049346#4 -510239016#3 -8051475#4 -8051475#6 13864691#0 176724388#0 18953135#0 18953135#6 19852374#0 19852375#0 21870218#0 21870223#2 227487138#0 30770543#0 445395231#0 5049346#0 5049346#3 5049347#0 8051475#2 8051475#5"/>
    <taz id="poly_163" edges="-227487138#2 -233574693#1 -296556210#1 -30596405 -30662364 -32652606#3 -32652607#2 -32652608#1 -8051474#3 227487138#0 227487139#0 22947419 233574693#0 24017939#0 30596405 30662364 32652606#0 32652607#0 32652608#0 8051474#0"/>
    <taz id="poly_164" edges="-27601947 -759460659 227487140#0 4981272#0 60471392#0"/>
    <taz id="poly_165" edges="-27601947 60471392#0"/>
    <taz id="poly_177" edges="-13636727#1 -13636727#2 -201817818#1 -5049350#3 13636727#0 13636727#2 13804116 13804339#0 13804339#3 201817818#0 41361081 5049348#0 5049348#1 5049349#0 5049350#0"/>
    <taz id="poly_178" edges="-13636727#1 -15429570#1 -15429577 -15429578#1 -30670371#2 -445395227#1 -5049400#2 13636727#0 15429570#0 15429575#0 15429577 15429578#0 296576675 301077361 30670371#0 41361081 445395227#0 4973559#0 5049347#0 5049347#4 5049400#0 5049401#0"/>
    <taz id="poly_179" edges="-15429570#1 -30670371#2 -445395229#1 -8051475#1 -8051475#4 15429570#0 30670371#0 445395222 505301156 8051475#0 8051475#2"/>
    <taz id="poly_180" edges="-178878603 -179137922#3 -227487138#2 -233574693#1 -30662365#1 -32652606#3 -4981430#1 -505301155#1 -55379622#2 178878603 179137922#0 215136485 227487138#0 233574693#0 302374777 302374778#0 302374780 32652606#0 4981430#0 5147959#0 55379622#0 729565370#0 744168637 744168644#0"/>
    <taz id="poly_181" edges="-310980429#2 -4973556#3 -5000422#3 -505301142#2 -505301155#1 4973556#0 4981272#0 4984535 5000422#0 505301141#0 505301142#0 744168637"/>
    <taz id="poly_182" edges="-27601947 60471392#0"/>
    <taz id="poly_183" edges="-27601947 60471392#0"/>
    <taz id="poly_191" edges="-33718247#1 33718247#0"/>
    <taz id="poly_192" edges="-2331704 -33718247#1 -4973845#1 -4973845#4 -4990967#1 -4990967#3 33718247#0 4973760#0 4973845#0 4973845#2 4990967#0 4990967#2 55379623 718188323#0 718188323#1 7931045"/>
    <taz id="poly_193" edges="-2331704 -301077360 301077360 7931045"/>
    <taz id="poly_194" edges="-201817818#1 -301077360 201817818#0 301077360 301077361 41361081 445395223"/>
    <taz id="poly_195" edges="-15437168#1 -4973787#3 15437168#0 301077362#0 41361089#3 4973559#0 4973559#2 4973787#0"/>
    <taz id="poly_196" edges="-154112808#6 -15437168#1 -16558815#1 -4973787#3 -4973787#5 -4973787#8 -5049341#0 -5049341#2 154112808#0 15437168#0 16558815#0 16558815#2 178878603 4973787#0 4973787#4 4973787#6 4981431#0 4981432#3 4981432#5 5049341#0 5049341#1 5049342#4 505301156"/>
    <taz id="poly_197" edges="-178878603 -179137922#3 -249388667#2 179137922#0 249388667#0 5049343#0 55379625#0"/>
    <taz id="poly_198" edges="-29088848#2 -30670370#2 -4973556#3 -505301143#2 29088848#0 30670370#0 4973556#0 505301141#0 505301143#0 505301144#0 505301145#0 55379625#0 609589075#0 8010118#0 9925453#0"/>
    <taz id="poly_199" edges="-4973556#10 -4973556#3 -4973556#6 4973556#0 4973556#4 4973556#7 609589075#0 8010118#0"/>
    <taz id="poly_200" edges="-27601947 60471392#0"/>
    <taz id="poly_208" edges="-16189585#1 16189585#0"/>
    <taz id="poly_209" edges="-438901846#0 -4973845#4 -4990967#1 -5049351#1 -5049351#2 -5122255#2 4973845#2 4990967#0 5049351#0 5049351#2 5049351#4 5122255#0"/>
    <taz id="poly_210" edges="-438901846#0 -5049391#0 438901846#1 5049351#4"/>
    <taz id="poly_212" edges="-41361088#1 -5105781 -5105782#1 -759460634 16558813#4 41361088#0 41361089#3 41361089#6 5105781 5105782#0"/>
    <taz id="poly_213" edges="-14508930#1 -14508930#2 -154112808#6 -154112808#8 -16558813#1 -16558813#3 -16558815#2 -21303435 -41361088#1 -41361088#3 -41361088#4 -41361088#6 -759460634 14508930#0 14508930#2 154112808#0 154112808#7 16558813#0 16558813#2 16558813#4 16558815#2 21303435 41361088#0 41361088#2 41361088#4 41361088#5 4981432#0 4981432#2 4981432#3 5049342#0 5049342#3 5049342#4 719037540#0 9099245 9099248 9226774#0"/>
    <taz id="poly_214" edges="-180066666#1 -180066666#4 154109990#0 180066666#0 180066666#2 301397683#0 5049343#0 719037540#0"/>
    <taz id="poly_215" edges="-744168635#2 154109990#0 301397683#0 505301144#0 505301145#0 505301150#0 505301151#0 744168635#0 9925453#0"/>
    <taz id="poly_216" edges="-328061950#2 -4973556#10 -4984536#3 -5004456 -5049367#3 -505301147#0 -505301147#1 -505301148 -505301149#2 -7972019#1 15495876 176370880#0 238955997#0 328061950#0 4973556#7 4984536#0 500278224 500278225 500278226 5004456 505301147#0 505301147#1 505301148 505301149#0 746501175#1 7972019#0 98440390"/>
    <taz id="poly_217" edges="-15495876 -27601947 176370880#1 500278227#0 60471392#0 746501175#1"/>
    <taz id="poly_218" edges="-27601947 60471392#0"/>
    <taz id="poly_227" edges="-342168290#2 -5049391#0 438901846#1 5049391#1"/>
    <taz id="poly_228" edges="-23010935#5 -342168290#2 23010935#0 5049391#1"/>
    <taz id="poly_229" edges="-22652739#3 -23010935#5 -5105781 -5105783#1 22652739#0 23010935#0 5105781 5105783#0"/>
    <taz id="poly_230" edges="-22652739#3 -240899432 -5049356#5 21309910#3 22652739#0 302507420#0 5049356#0 9099246#0 9099248"/>
    <taz id="poly_231" edges="-180066666#4 -23044000#1 -5049356#5 -98440400#1 14154972 180066666#2 21309910#0 21309910#2 21309910#3 23044000#0 328061952#0 5049356#0 9099246#0 98440400#0"/>
    <taz id="poly_232" edges="-154112820#1 -23044000#1 -328061953#3 -4981348 -5049367#3 -5051193 -5051196#0 -505301152#1 -9099244#2 154109990#0 154109991 154112820#0 199395260 21309910#0 23044000#0 328061952#0 5051196#1 505301151#0 505301152#0 505301153#0 505301154#0 75313320#0 9099244#0 9099247#0"/>
    <taz id="poly_233" edges="-154112820#1 -29088844 -328061950#2 -328061953#3 -4981346 104290820#0 104290822#0 154112820#0 169348263#0 169348264#0 328061950#0 4981346 5051196#1 5107097 515073669#0 515073671#0 7972003#0"/>
    <taz id="poly_234" edges="-15495876 -4984534 15495876 169348263#0 7972003#0 80865280#0"/>
    <taz id="poly_235" edges="-27601947 -627542583 37524433#0 60471392#0 60520221 60673434 627542561 627542582 627542583"/>
    <taz id="poly_236" edges="176370869 176370874 176370875#0 176370875#1 176370879 176374648#1 186176841#0 186176841#1 186176842 186176844 239963902#0 37524433#0 5056891 60471388 60471394#0 60520219#0 60520221 60520222#0 60673434 627542560#0 627542561 627542582 730037826 93266476#0"/>
    <taz id="poly_247" edges="-240899432 302507420#0"/>
    <taz id="poly_248" edges="-240899432 -302507418 -302507419#1 -5049356#5 302507418 302507419#0 302507420#0 342308747#0 5049356#0 717944155#0 717944155#1"/>
    <taz id="poly_249" edges="-342168271 -4981348 199395260 21063788#0 328061951#3 342168271 342168272 342308746#0 342308747#0 717955853 717955854"/>
    <taz id="poly_251" edges="-4984534 515073669#0 515073671#0 80865280#0"/>
    <taz id="poly_252" edges="-27601986 176370865 176370867 176370871 176370876 27601986 37524432 37524433#0 37524434 515073669#0 515073671#0 515073682 515073684 93266476#0"/>
    <taz id="poly_253" edges="60673434 627542561"/>
    <taz id="poly_266" edges="-4973730#1 21063788#0 21063788#3 238902679#3 328061951#3 4973730#0"/>
    <taz id="poly_267" edges="-164481041 -23011073#0 -23011074 21063788#3 23011073#1 238902679#3 5049375#0 5049376#1"/>
    <taz id="poly_268" edges="-4984534 -5049374#1 -5049374#6 -515073666#1 37524435 5049374#2 515073666#0 515073666#2 561770405#1 561770407#0 561770410 80865280#0"/>
    <taz id="poly_269" edges="-27601986 -308284427#2 27601986 308284427#0 37524435 561770410"/>
    <taz id="poly_27" edges="-190309447 -431246733#1 190309447 431246733#0"/>
    <taz id="poly_284" edges="-164481041 -23011073#0 21063788#3 238902679#0 238902679#3 238902682 5049375#0 5049376#1 75429312#1"/>
    <taz id="poly_285" edges="-164481037#1 -164481041 -238902657#2 -243705727#1 -249470002 -5049374#6 233981122 238086623 238086628 238902657#0 238902665 238902679#0 243705727#0 249469998 249470002 290003279 290003280 30677574 318656085 318656086 328241502 37524435 4983969#0 4984745 5004452#0 5004452#1 5004452#2 5049374#2 5049374#7 5049375#0 539308469 561770405#0 561770405#1 561770406 561770407#0 682854404 717944151 717944152 717944153 717944154 717955855 717955856 86166122"/>
    <taz id="poly_286" edges="-308284426#1 -308284427#2 238086628 249470011 308284426#0 308284427#0 308284429#1 561770410 60660263 682854380 682854381 737126620 737126634"/>
    <taz id="poly_300" edges="238086623 290003280"/>
    <taz id="poly_301" edges="238086623 290003280"/>
    <taz id="poly_302" edges="-238902685#1 -75313321#1 238086623 238902685#0 290003280 318656086 718188324"/>
    <taz id="poly_319" edges="-75313321#1 718188324"/>
    <taz id="poly_42" edges="-101203188 23326767"/>
    <taz id="poly_43" edges="-101203188 -15235404 -15235411 -30490088 -431246732 -431246733#1 -431246785#1 15235403#0 15235403#1 15235404 15235411 176374651 186176847 23326767 30490088 431246732 431246733#0 431246785#0"/>
    <taz id="poly_44" edges="-431246785#1 431246785#0"/>
    <taz id="poly_58" edges="-26813482 26813482"/>
    <taz id="poly_59" edges="-101203188 -23329938 -26813482 176374650#0 176374650#1 23326767 23329938 23329939 26813482"/>
    <taz id="poly_60" edges="15235411"/>
    <taz id="poly_61" edges="-15235411 -190309445#0 -23036085#1 -431246745 -450371153 -450371154 15235411 23036085#2 450371153 450371154"/>
    <taz id="poly_75" edges="-23035952#3 -23035952#4 -23035972#1 23035952#0 23035952#4 23035972#0"/>
    <taz id="poly_76" edges="-224470082 -23035952#3 -23329938 -617711514 -686380239#2 176064637#0 176064637#1 176064637#2 224470082 228255883#0 228255884#0 228255884#2 23035952#0 23329936 23329938 261607997#0 261607997#1 261607998 617711514 617711517 617711518 617711519 617711520 727900568 727902834 727902835 733747314 733747316 801412351"/>
    <taz id="poly_77" edges="-23036041#1 -23036041#5 -23036047#1 -23036048#3 -23036050 -55379618#1 -686380239#2 -8585005#2 23036041#0 23036041#2 23036047#1 23036048#0 23036050 261607998 55379618#0 8585005#0"/>
    <taz id="poly_78" edges="-15235411 -23036041#5 -23036041#6 -23036050 -23036085#1 -431246745 15235411 15235412#0 23036041#2 23036041#6 23036045#0 23036046#0 23036049 60471386"/>
    <taz id="poly_92" edges="-23035952#4 -23035972#1 -270122698#4 -270122698#5 23035952#4 23035972#0 270122698#4 270122698#5"/>
    <taz id="poly_93" edges="-224470082 -270122698#1 -270122698#2 270122698#0 270122698#2"/>
    <taz id="poly_94" edges="-19727592 -270122698#1 -5058128#1 -8585005#2 -8585005#4 176690218 176690219#1 176690219#3 176690220#0 176690238#0 176690253#0 179137924 19727589#0 224470082 270122698#0 5058128#1 744168636#0 8585005#0 8585005#3"/>
    <taz id="poly_95" edges="-23036046#0 -27601947 15235412#0 23036044#0 23036046#0 60471386 60471392#0"/>
</tazs>
