<?xml version="1.0" encoding="UTF-8"?>

<!-- generated on Fri May 15 11:08:58 2020 by Eclipse SUMO netconvert Version 1.5.0
<configuration xmlns:xsi="http://www.w3.org/2001/XMLSchema-instance" xsi:noNamespaceSchemaLocation="http://sumo.dlr.de/xsd/netconvertConfiguration.xsd">

    <input>
        <sumo-net-file value="osm.net.xml"/>
    </input>

    <output>
        <output-file value="test.net.xml"/>
        <output.street-names value="true"/>
    </output>

    <processing>
        <geometry.min-radius.fix.railways value="false"/>
        <geometry.max-grade.fix value="false"/>
        <offset.disable-normalization value="true"/>
        <offset.y value="-200"/>
        <lefthand value="false"/>
    </processing>

    <junctions>
        <no-turnarounds value="true"/>
        <junctions.corner-detail value="5"/>
        <junctions.limit-turn-speed value="5.5"/>
        <rectangular-lane-cut value="false"/>
    </junctions>

    <pedestrian>
        <walkingareas value="false"/>
    </pedestrian>

    <report>
        <aggregate-warnings value="5"/>
    </report>

</configuration>
-->

<net version="1.3" junctionCornerDetail="5" limitTurnSpeed="5.50" xmlns:xsi="http://www.w3.org/2001/XMLSchema-instance" xsi:noNamespaceSchemaLocation="http://sumo.dlr.de/xsd/net_file.xsd">

    <location netOffset="-567508.90,-7033213.30" convBoundary="106.63,23.54,3593.64,2255.00" origBoundary="9.830000,63.380000,10.650000,63.600000" projParameter="+proj=utm +zone=32 +ellps=WGS84 +datum=WGS84 +units=m +no_defs"/>

    <type id="highway.bridleway" priority="1" numLanes="1" speed="2.78" allow="pedestrian" oneway="1" width="2.00"/>
    <type id="highway.bus_guideway" priority="1" numLanes="1" speed="27.78" allow="bus" oneway="1"/>
    <type id="highway.cycleway" priority="1" numLanes="1" speed="8.33" allow="bicycle" oneway="0" width="1.00"/>
    <type id="highway.footway" priority="1" numLanes="1" speed="2.78" allow="pedestrian" oneway="1" width="2.00"/>
    <type id="highway.ford" priority="1" numLanes="1" speed="2.78" allow="army" oneway="0"/>
    <type id="highway.living_street" priority="2" numLanes="1" speed="2.78" disallow="tram rail_urban rail rail_electric rail_fast ship" oneway="0"/>
    <type id="highway.motorway" priority="14" numLanes="2" speed="39.44" allow="private emergency authority army vip passenger hov taxi bus coach delivery truck trailer motorcycle evehicle custom1 custom2" oneway="1"/>
    <type id="highway.motorway_link" priority="9" numLanes="1" speed="22.22" allow="private emergency authority army vip passenger hov taxi bus coach delivery truck trailer motorcycle evehicle custom1 custom2" oneway="1"/>
    <type id="highway.path" priority="1" numLanes="1" speed="2.78" allow="pedestrian bicycle" oneway="1" width="2.00"/>
    <type id="highway.pedestrian" priority="1" numLanes="1" speed="2.78" allow="pedestrian" oneway="1" width="2.00"/>
    <type id="highway.primary" priority="12" numLanes="2" speed="27.78" disallow="tram rail_urban rail rail_electric rail_fast ship" oneway="0"/>
    <type id="highway.primary_link" priority="7" numLanes="1" speed="22.22" disallow="tram rail_urban rail rail_electric rail_fast ship" oneway="0"/>
    <type id="highway.raceway" priority="15" numLanes="2" speed="83.33" allow="vip" oneway="0"/>
    <type id="highway.residential" priority="3" numLanes="1" speed="13.89" disallow="tram rail_urban rail rail_electric rail_fast ship" oneway="0"/>
    <type id="highway.secondary" priority="11" numLanes="1" speed="27.78" disallow="tram rail_urban rail rail_electric rail_fast ship" oneway="0"/>
    <type id="highway.secondary_link" priority="6" numLanes="1" speed="22.22" disallow="tram rail_urban rail rail_electric rail_fast ship" oneway="0"/>
    <type id="highway.service" priority="1" numLanes="1" speed="5.56" allow="pedestrian delivery bicycle" oneway="0"/>
    <type id="highway.stairs" priority="1" numLanes="1" speed="1.39" allow="pedestrian" oneway="1" width="2.00"/>
    <type id="highway.step" priority="1" numLanes="1" speed="1.39" allow="pedestrian" oneway="1" width="2.00"/>
    <type id="highway.steps" priority="1" numLanes="1" speed="1.39" allow="pedestrian" oneway="1" width="2.00"/>
    <type id="highway.tertiary" priority="10" numLanes="1" speed="22.22" disallow="tram rail_urban rail rail_electric rail_fast ship" oneway="0"/>
    <type id="highway.tertiary_link" priority="5" numLanes="1" speed="22.22" disallow="tram rail_urban rail rail_electric rail_fast ship" oneway="0"/>
    <type id="highway.track" priority="1" numLanes="1" speed="5.56" disallow="tram rail_urban rail rail_electric rail_fast ship" oneway="0"/>
    <type id="highway.trunk" priority="13" numLanes="2" speed="27.78" disallow="pedestrian bicycle tram rail_urban rail rail_electric rail_fast ship" oneway="0"/>
    <type id="highway.trunk_link" priority="8" numLanes="1" speed="22.22" disallow="pedestrian bicycle tram rail_urban rail rail_electric rail_fast ship" oneway="0"/>
    <type id="highway.unclassified" priority="4" numLanes="1" speed="13.89" disallow="tram rail_urban rail rail_electric rail_fast ship" oneway="0"/>
    <type id="highway.unsurfaced" priority="1" numLanes="1" speed="8.33" disallow="tram rail_urban rail rail_electric rail_fast ship" oneway="0"/>
    <type id="railway.highspeed" priority="21" numLanes="1" speed="69.44" allow="rail_fast" oneway="1"/>
    <type id="railway.light_rail" priority="19" numLanes="1" speed="27.78" allow="rail_urban" oneway="1"/>
    <type id="railway.preserved" priority="16" numLanes="1" speed="27.78" allow="rail" oneway="1"/>
    <type id="railway.rail" priority="20" numLanes="1" speed="44.44" allow="rail" oneway="1"/>
    <type id="railway.subway" priority="18" numLanes="1" speed="27.78" allow="rail_urban" oneway="1"/>
    <type id="railway.tram" priority="17" numLanes="1" speed="13.89" allow="tram" oneway="1"/>

    <edge id=":10137943_0" function="internal">
        <lane id=":10137943_0_0" index="0" disallow="tram rail_urban rail rail_electric rail_fast ship" speed="27.78" length="12.36" shape="3178.89,1821.56 3177.29,1824.29 3176.29,1826.67 3175.15,1829.22 3173.16,1832.48"/>
    </edge>
    <edge id=":10137943_1" function="internal">
        <lane id=":10137943_1_0" index="0" disallow="tram rail_urban rail rail_electric rail_fast ship" speed="3.65" length="2.44" shape="3178.89,1821.56 3177.55,1822.09 3176.67,1821.96 3176.62,1821.87"/>
    </edge>
    <edge id=":10137943_4" function="internal">
        <lane id=":10137943_4_0" index="0" disallow="tram rail_urban rail rail_electric rail_fast ship" speed="3.65" length="2.23" shape="3176.62,1821.87 3176.24,1821.18 3176.26,1819.73"/>
    </edge>
    <edge id=":10137943_2" function="internal">
        <lane id=":10137943_2_0" index="0" disallow="tram rail_urban rail rail_electric rail_fast ship" speed="18.84" length="11.72" shape="3167.27,1827.04 3170.11,1825.43 3172.33,1824.00 3174.27,1822.26 3176.26,1819.73"/>
    </edge>
    <edge id=":10137943_3" function="internal">
        <lane id=":10137943_3_0" index="0" disallow="tram rail_urban rail rail_electric rail_fast ship" speed="5.65" length="12.20" shape="3167.27,1827.04 3171.12,1825.18 3172.95,1825.16 3172.75,1826.98 3170.54,1830.63"/>
    </edge>
    <edge id=":105200_0" function="internal">
        <lane id=":105200_0_0" index="0" disallow="tram rail_urban rail rail_electric rail_fast ship" speed="6.52" length="9.00" shape="3096.40,1720.63 3093.94,1720.86 3092.14,1721.82 3090.99,1723.50 3090.51,1725.91"/>
    </edge>
    <edge id=":105200_1" function="internal">
        <lane id=":105200_1_0" index="0" disallow="tram rail_urban rail rail_electric rail_fast ship" speed="8.04" length="14.16" shape="3096.40,1720.63 3092.59,1719.90 3089.91,1718.13 3088.36,1715.33 3087.93,1711.48"/>
    </edge>
    <edge id=":105200_2" function="internal">
        <lane id=":105200_2_0" index="0" disallow="tram rail_urban rail rail_electric rail_fast ship" speed="3.65" length="2.55" shape="3096.40,1720.63 3095.24,1719.76 3094.88,1718.94 3094.99,1718.76"/>
    </edge>
    <edge id=":105200_9" function="internal">
        <lane id=":105200_9_0" index="0" disallow="tram rail_urban rail rail_electric rail_fast ship" speed="3.65" length="2.12" shape="3094.99,1718.76 3095.33,1718.17 3096.57,1717.43"/>
    </edge>
    <edge id=":105200_3" function="internal">
        <lane id=":105200_3_0" index="0" disallow="tram rail_urban rail rail_electric rail_fast ship" speed="6.56" length="9.07" shape="3091.13,1711.58 3091.40,1714.04 3092.40,1715.84 3094.12,1716.97 3096.57,1717.43"/>
    </edge>
    <edge id=":105200_4" function="internal">
        <lane id=":105200_4_0" index="0" disallow="tram rail_urban rail rail_electric rail_fast ship" speed="8.33" length="14.34" shape="3091.13,1711.58 3090.51,1725.91"/>
    </edge>
    <edge id=":105200_5" function="internal">
        <lane id=":105200_5_0" index="0" disallow="tram rail_urban rail rail_electric rail_fast ship" speed="3.65" length="2.08" shape="3091.13,1711.58 3090.29,1712.76 3089.71,1713.02"/>
    </edge>
    <edge id=":105200_10" function="internal">
        <lane id=":105200_10_0" index="0" disallow="tram rail_urban rail rail_electric rail_fast ship" speed="3.65" length="2.59" shape="3089.71,1713.02 3089.48,1713.13 3088.69,1712.71 3087.93,1711.48"/>
    </edge>
    <edge id=":105200_6" function="internal">
        <lane id=":105200_6_0" index="0" disallow="tram rail_urban rail rail_electric rail_fast ship" speed="8.33" length="14.26" shape="3087.32,1725.73 3087.93,1711.48"/>
    </edge>
    <edge id=":105200_7" function="internal">
        <lane id=":105200_7_0" index="0" disallow="tram rail_urban rail rail_electric rail_fast ship" speed="8.01" length="14.15" shape="3087.32,1725.73 3088.07,1721.95 3089.87,1719.30 3092.70,1717.79 3096.57,1717.43"/>
    </edge>
    <edge id=":105200_8" function="internal">
        <lane id=":105200_8_0" index="0" disallow="tram rail_urban rail rail_electric rail_fast ship" speed="3.65" length="4.67" shape="3087.32,1725.73 3088.18,1724.58 3089.00,1724.22 3089.78,1724.67 3090.51,1725.91"/>
    </edge>
    <edge id=":105513_0" function="internal">
        <lane id=":105513_0_0" index="0" disallow="tram rail_urban rail rail_electric rail_fast ship" speed="11.16" length="10.87" shape="715.77,919.13 712.89,917.83 710.64,917.10 708.36,917.06 705.40,917.86"/>
    </edge>
    <edge id=":105513_1" function="internal">
        <lane id=":105513_1_0" index="0" disallow="tram rail_urban rail rail_electric rail_fast ship" speed="8.68" length="13.73" shape="715.77,919.13 713.24,917.38 711.67,914.81 711.05,911.43 711.39,907.24"/>
    </edge>
    <edge id=":105513_2" function="internal">
        <lane id=":105513_2_0" index="0" disallow="tram rail_urban rail rail_electric rail_fast ship" speed="3.65" length="4.67" shape="715.77,919.13 715.03,917.89 715.01,916.99 715.72,916.44 717.15,916.23"/>
    </edge>
    <edge id=":105513_3" function="internal">
        <lane id=":105513_3_0" index="0" disallow="tram rail_urban rail rail_electric rail_fast ship" speed="7.01" length="8.67" shape="714.38,908.72 714.16,911.37 714.55,913.51 715.55,915.13 717.15,916.23"/>
    </edge>
    <edge id=":105513_4" function="internal">
        <lane id=":105513_4_0" index="0" disallow="tram rail_urban rail rail_electric rail_fast ship" speed="9.88" length="13.44" shape="714.38,908.72 713.39,911.68 711.57,914.18 708.90,916.24 705.40,917.86"/>
    </edge>
    <edge id=":105513_5" function="internal">
        <lane id=":105513_5_0" index="0" disallow="tram rail_urban rail rail_electric rail_fast ship" speed="3.70" length="4.87" shape="714.38,908.72 713.07,909.47 712.14,909.47 711.58,908.73 711.39,907.24"/>
    </edge>
    <edge id=":105513_6" function="internal">
        <lane id=":105513_6_0" index="0" disallow="tram rail_urban rail rail_electric rail_fast ship" speed="8.94" length="10.90" shape="704.33,914.84 707.06,913.55 709.14,911.86 710.59,909.75 711.39,907.24"/>
    </edge>
    <edge id=":105513_7" function="internal">
        <lane id=":105513_7_0" index="0" disallow="tram rail_urban rail rail_electric rail_fast ship" speed="12.28" length="13.26" shape="704.33,914.84 707.68,914.07 710.79,914.15 713.88,914.92 717.15,916.23"/>
    </edge>
    <edge id=":105513_8" function="internal">
        <lane id=":105513_8_0" index="0" disallow="tram rail_urban rail rail_electric rail_fast ship" speed="3.65" length="4.67" shape="704.33,914.84 705.73,915.19 706.37,915.81 706.26,916.70 705.40,917.86"/>
    </edge>
    <edge id=":1073498465_0" function="internal">
        <lane id=":1073498465_0_0" index="0" disallow="tram rail_urban rail rail_electric rail_fast ship" speed="6.15" length="5.25" shape="712.91,827.42 712.24,825.69 711.53,824.44 710.77,823.64 709.98,823.31"/>
    </edge>
    <edge id=":1073498465_1" function="internal">
        <lane id=":1073498465_1_0" index="0" disallow="tram rail_urban rail rail_electric rail_fast ship" speed="12.55" length="5.24" shape="715.05,822.35 713.58,822.89 712.56,823.26 711.51,823.41 709.98,823.31"/>
    </edge>
    <edge id=":1074801729_0" function="internal">
        <lane id=":1074801729_0_0" index="0" disallow="tram rail_urban rail rail_electric rail_fast ship" speed="11.87" length="8.58" shape="2754.93,1308.25 2752.53,1307.76 2750.83,1307.99 2749.12,1308.69 2746.72,1309.59"/>
    </edge>
    <edge id=":1074801729_1" function="internal">
        <lane id=":1074801729_1_0" index="0" disallow="tram rail_urban rail rail_electric rail_fast ship" speed="12.54" length="9.61" shape="2754.93,1308.25 2752.25,1307.20 2750.36,1306.35 2748.46,1306.02 2745.77,1306.53"/>
    </edge>
    <edge id=":1074801729_2" function="internal">
        <lane id=":1074801729_2_0" index="0" disallow="tram rail_urban rail rail_electric rail_fast ship" speed="9.93" length="8.98" shape="2754.93,1308.25 2752.24,1307.16 2750.05,1305.76 2748.37,1304.06 2747.20,1302.05"/>
        <lane id=":1074801729_2_1" index="1" disallow="tram rail_urban rail rail_electric rail_fast ship" speed="8.69" length="8.98" shape="2755.90,1305.21 2753.85,1304.38 2752.19,1303.32 2750.92,1302.04 2750.03,1300.54"/>
    </edge>
    <edge id=":1074801773_0" function="internal">
        <lane id=":1074801773_0_0" index="0" disallow="tram rail_urban rail rail_electric rail_fast ship" speed="13.89" length="10.93" shape="2766.63,1312.07 2763.86,1310.72 2761.97,1309.69 2760.00,1309.01 2757.00,1308.74"/>
        <lane id=":1074801773_0_1" index="1" disallow="tram rail_urban rail rail_electric rail_fast ship" speed="13.89" length="10.93" shape="2767.87,1309.12 2764.77,1307.64 2762.63,1306.53 2760.41,1305.82 2757.06,1305.54"/>
    </edge>
    <edge id=":1074801773_2" function="internal">
        <lane id=":1074801773_2_0" index="0" disallow="tram rail_urban rail rail_electric rail_fast ship" speed="10.01" length="10.24" shape="2767.42,1304.69 2765.55,1306.50 2763.20,1307.78 2760.35,1308.53 2757.00,1308.74"/>
        <lane id=":1074801773_2_1" index="1" disallow="tram rail_urban rail rail_electric rail_fast ship" speed="11.72" length="10.24" shape="2765.18,1302.56 2763.03,1304.08 2761.41,1305.01 2759.65,1305.45 2757.06,1305.54"/>
    </edge>
    <edge id=":1077286388_0" function="internal">
        <lane id=":1077286388_0_0" index="0" disallow="tram rail_urban rail rail_electric rail_fast ship" speed="27.78" length="0.28" shape="2972.93,1845.81 2972.64,1845.81"/>
    </edge>
    <edge id=":1077286388_1" function="internal">
        <lane id=":1077286388_1_0" index="0" disallow="tram rail_urban rail rail_electric rail_fast ship" speed="27.78" length="0.30" shape="2972.52,1842.62 2972.82,1842.60"/>
    </edge>
    <edge id=":1077665381_0" function="internal">
        <lane id=":1077665381_0_0" index="0" disallow="tram rail_urban rail rail_electric rail_fast ship" speed="7.13" length="6.76" shape="2528.98,2192.93 2527.40,2192.83 2525.88,2193.20 2524.42,2194.05 2523.03,2195.38"/>
    </edge>
    <edge id=":1077665381_1" function="internal">
        <lane id=":1077665381_1_0" index="0" disallow="tram rail_urban rail rail_electric rail_fast ship" speed="13.89" length="7.39" shape="2528.98,2192.93 2526.85,2192.43 2525.44,2191.91 2524.13,2191.15 2522.32,2189.92"/>
    </edge>
    <edge id=":1077665407_0" function="internal">
        <lane id=":1077665407_0_0" index="0" disallow="pedestrian bicycle tram rail_urban rail rail_electric rail_fast ship" speed="6.94" length="7.21" shape="2595.28,2138.71 2593.67,2137.50 2592.03,2136.86 2590.36,2136.78 2588.66,2137.26"/>
    </edge>
    <edge id=":1077665407_1" function="internal">
        <lane id=":1077665407_1_0" index="0" disallow="pedestrian bicycle tram rail_urban rail rail_electric rail_fast ship" speed="13.09" length="7.43" shape="2595.29,2132.90 2593.79,2134.71 2592.47,2135.68 2590.90,2136.35 2588.66,2137.26"/>
        <lane id=":1077665407_1_1" index="1" disallow="pedestrian bicycle tram rail_urban rail rail_electric rail_fast ship" speed="27.78" length="7.43" shape="2593.02,2130.71 2591.47,2131.97 2590.37,2132.80 2589.18,2133.49 2587.37,2134.33"/>
    </edge>
    <edge id=":1077665421_0" function="internal">
        <lane id=":1077665421_0_0" index="0" disallow="tram rail_urban rail rail_electric rail_fast ship" speed="13.89" length="7.19" shape="2520.86,2188.73 2519.67,2186.96 2518.90,2185.71 2518.33,2184.36 2517.73,2182.32"/>
    </edge>
    <edge id=":1077665421_1" function="internal">
        <lane id=":1077665421_1_0" index="0" disallow="tram rail_urban rail rail_electric rail_fast ship" speed="7.42" length="6.66" shape="2515.72,2188.40 2516.89,2186.83 2517.62,2185.29 2517.90,2183.79 2517.73,2182.32"/>
    </edge>
    <edge id=":1077665436_0" function="internal">
        <lane id=":1077665436_0_0" index="0" disallow="pedestrian bicycle tram rail_urban rail rail_electric rail_fast ship" speed="9.17" length="6.75" shape="2713.93,1957.63 2714.49,1963.23"/>
        <lane id=":1077665436_0_1" index="1" disallow="pedestrian bicycle tram rail_urban rail rail_electric rail_fast ship" speed="10.76" length="6.75" shape="2710.80,1958.27 2710.97,1960.63 2710.81,1962.41 2711.04,1963.96 2712.38,1965.64"/>
    </edge>
    <edge id=":1077665436_2" function="internal">
        <lane id=":1077665436_2_0" index="0" disallow="pedestrian bicycle tram rail_urban rail rail_electric rail_fast ship" speed="9.93" length="6.75" shape="2707.59,1961.40 2709.79,1961.39 2711.37,1961.47 2712.77,1961.97 2714.49,1963.23"/>
        <lane id=":1077665436_2_1" index="1" disallow="pedestrian bicycle tram rail_urban rail rail_electric rail_fast ship" speed="9.05" length="6.75" shape="2706.62,1964.58 2708.45,1964.51 2709.77,1964.42 2710.96,1964.67 2712.38,1965.64"/>
    </edge>
    <edge id=":1077665448_0" function="internal">
        <lane id=":1077665448_0_0" index="0" disallow="pedestrian bicycle tram rail_urban rail rail_electric rail_fast ship" speed="8.84" length="7.77" shape="2601.84,2112.39 2600.37,2114.53 2599.40,2116.41 2598.91,2118.03 2598.90,2119.39"/>
    </edge>
    <edge id=":1077665448_1" function="internal">
        <lane id=":1077665448_1_0" index="0" disallow="pedestrian bicycle tram rail_urban rail rail_electric rail_fast ship" speed="10.18" length="10.44" shape="2599.28,2110.46 2597.46,2113.19 2596.26,2115.69 2595.70,2117.96 2595.76,2120.01"/>
    </edge>
    <edge id=":1077665448_2" function="internal">
        <lane id=":1077665448_2_0" index="0" disallow="pedestrian bicycle tram rail_urban rail rail_electric rail_fast ship" speed="11.11" length="9.77" shape="2594.45,2110.44 2596.71,2112.39 2597.83,2114.18 2598.37,2116.33 2598.90,2119.39"/>
        <lane id=":1077665448_2_1" index="1" disallow="pedestrian bicycle tram rail_urban rail rail_electric rail_fast ship" speed="10.42" length="9.77" shape="2591.59,2112.31 2593.61,2114.00 2594.68,2115.52 2595.25,2117.36 2595.76,2120.01"/>
    </edge>
    <edge id=":1078388837_0" function="internal">
        <lane id=":1078388837_0_0" index="0" disallow="tram rail_urban rail rail_electric rail_fast ship" speed="13.89" length="8.38" shape="727.69,753.60 727.75,756.10 728.56,757.79 729.38,759.49 729.48,761.99"/>
        <lane id=":1078388837_0_1" index="1" disallow="tram rail_urban rail rail_electric rail_fast ship" speed="13.89" length="8.38" shape="727.69,753.60 726.32,761.48"/>
    </edge>
    <edge id=":1078388837_2" function="internal">
        <lane id=":1078388837_2_0" index="0" disallow="tram rail_urban rail rail_electric rail_fast ship" speed="13.89" length="8.84" shape="720.07,760.46 720.95,758.10 722.28,756.75 723.62,755.40 724.54,753.04"/>
    </edge>
    <edge id=":1078388889_0" function="internal">
        <lane id=":1078388889_0_0" index="0" disallow="tram rail_urban rail rail_electric rail_fast ship" speed="22.22" length="5.19" shape="721.88,840.27 721.47,841.75 721.34,842.79 721.33,843.86 721.28,845.40"/>
    </edge>
    <edge id=":1078388889_1" function="internal">
        <lane id=":1078388889_1_0" index="0" disallow="tram rail_urban rail rail_electric rail_fast ship" speed="4.93" length="4.36" shape="721.88,840.27 720.73,843.00 719.74,843.98"/>
    </edge>
    <edge id=":1078388889_4" function="internal">
        <lane id=":1078388889_4_0" index="0" disallow="tram rail_urban rail rail_electric rail_fast ship" speed="4.93" length="3.77" shape="719.74,843.98 719.63,844.09 718.56,843.55 717.54,841.36"/>
    </edge>
    <edge id=":1078388889_2" function="internal">
        <lane id=":1078388889_2_0" index="0" disallow="tram rail_urban rail rail_electric rail_fast ship" speed="13.15" length="3.90" shape="718.09,845.18 718.14,844.03 718.09,843.24 717.90,842.46 717.54,841.36"/>
    </edge>
    <edge id=":1078388889_3" function="internal">
        <lane id=":1078388889_3_0" index="0" disallow="tram rail_urban rail rail_electric rail_fast ship" speed="3.65" length="2.34" shape="718.09,845.18 718.97,844.04 719.79,843.69"/>
    </edge>
    <edge id=":1078388889_5" function="internal">
        <lane id=":1078388889_5_0" index="0" disallow="tram rail_urban rail rail_electric rail_fast ship" speed="3.65" length="2.34" shape="719.79,843.69 720.56,844.15 721.28,845.40"/>
    </edge>
    <edge id=":1139001891_0" function="internal">
        <lane id=":1139001891_0_0" index="0" disallow="tram rail_urban rail rail_electric rail_fast ship" speed="27.78" length="5.28" shape="2368.59,1703.04 2367.03,1702.95 2365.95,1702.91 2364.88,1703.00 2363.37,1703.35"/>
    </edge>
    <edge id=":1139001891_1" function="internal">
        <lane id=":1139001891_1_0" index="0" disallow="tram rail_urban rail rail_electric rail_fast ship" speed="3.65" length="2.51" shape="2368.59,1703.04 2367.42,1702.19 2367.05,1701.38 2367.14,1701.23"/>
    </edge>
    <edge id=":1139001891_4" function="internal">
        <lane id=":1139001891_4_0" index="0" disallow="tram rail_urban rail rail_electric rail_fast ship" speed="3.65" length="2.16" shape="2367.14,1701.23 2367.48,1700.59 2368.71,1699.84"/>
    </edge>
    <edge id=":1139001891_2" function="internal">
        <lane id=":1139001891_2_0" index="0" disallow="tram rail_urban rail rail_electric rail_fast ship" speed="27.78" length="3.66" shape="2365.09,1699.31 2368.71,1699.84"/>
    </edge>
    <edge id=":1139001891_3" function="internal">
        <lane id=":1139001891_3_0" index="0" disallow="tram rail_urban rail rail_electric rail_fast ship" speed="5.43" length="5.88" shape="2365.09,1699.31 2368.59,1699.96 2369.47,1700.84 2368.56,1701.43"/>
    </edge>
    <edge id=":1139001891_5" function="internal">
        <lane id=":1139001891_5_0" index="0" disallow="tram rail_urban rail rail_electric rail_fast ship" speed="5.43" length="5.57" shape="2368.56,1701.43 2367.73,1701.98 2363.37,1703.35"/>
    </edge>
    <edge id=":1139002566_0" function="internal">
        <lane id=":1139002566_0_0" index="0" disallow="tram rail_urban rail rail_electric rail_fast ship" speed="7.20" length="6.50" shape="2342.40,1576.72 2341.55,1575.16 2340.48,1573.96 2339.19,1573.14 2337.67,1572.70"/>
    </edge>
    <edge id=":1139002566_1" function="internal">
        <lane id=":1139002566_1_0" index="0" disallow="tram rail_urban rail rail_electric rail_fast ship" speed="11.11" length="6.39" shape="2343.99,1573.60 2337.67,1572.70"/>
    </edge>
    <edge id=":1139002566_2" function="internal">
        <lane id=":1139002566_2_0" index="0" disallow="tram rail_urban rail rail_electric rail_fast ship" speed="11.11" length="6.26" shape="2338.67,1566.38 2344.83,1567.25"/>
        <lane id=":1139002566_2_1" index="1" disallow="tram rail_urban rail rail_electric rail_fast ship" speed="11.11" length="6.26" shape="2338.17,1569.54 2344.41,1570.43"/>
    </edge>
    <edge id=":1139392922_0" function="internal">
        <lane id=":1139392922_0_0" index="0" disallow="tram rail_urban rail rail_electric rail_fast ship" speed="8.34" length="0.31" shape="1797.52,1229.19 1797.25,1229.04"/>
    </edge>
    <edge id=":1139392922_1" function="internal">
        <lane id=":1139392922_1_0" index="0" disallow="tram rail_urban rail rail_electric rail_fast ship" speed="8.34" length="0.29" shape="1798.71,1226.20 1798.96,1226.33"/>
    </edge>
    <edge id=":1168181127_0" function="internal">
        <lane id=":1168181127_0_0" index="0" disallow="tram rail_urban rail rail_electric rail_fast ship" speed="3.65" length="4.67" shape="3086.84,1833.52 3086.01,1834.70 3085.20,1835.08 3084.41,1834.66 3083.64,1833.44"/>
    </edge>
    <edge id=":1203329904_0" function="internal">
        <lane id=":1203329904_0_0" index="0" disallow="tram rail_urban rail rail_electric rail_fast ship" speed="15.52" length="14.62" shape="2624.54,1688.42 2623.02,1684.08 2621.39,1680.98 2619.40,1678.58 2616.85,1676.34"/>
    </edge>
    <edge id=":1203329904_1" function="internal">
        <lane id=":1203329904_1_0" index="0" disallow="tram rail_urban rail rail_electric rail_fast ship" speed="20.84" length="14.65" shape="2624.54,1688.42 2623.49,1684.17 2623.13,1681.18 2622.93,1678.15 2622.34,1673.78"/>
        <lane id=":1203329904_1_1" index="1" disallow="tram rail_urban rail rail_electric rail_fast ship" speed="20.84" length="14.65" shape="2627.61,1687.50 2626.58,1683.35 2626.25,1680.44 2626.06,1677.48 2625.49,1673.23"/>
    </edge>
    <edge id=":1203329911_0" function="internal">
        <lane id=":1203329911_0_0" index="0" disallow="tram rail_urban rail rail_electric rail_fast ship" speed="9.05" length="7.39" shape="2605.04,1671.52 2602.63,1670.96 2600.61,1670.73 2599.00,1670.83 2597.79,1671.24"/>
    </edge>
    <edge id=":1203329911_1" function="internal">
        <lane id=":1203329911_1_0" index="0" disallow="tram rail_urban rail rail_electric rail_fast ship" speed="27.78" length="7.74" shape="2604.47,1667.31 2597.79,1671.24"/>
    </edge>
    <edge id=":1203329991_0" function="internal">
        <lane id=":1203329991_0_0" index="0" disallow="tram rail_urban rail rail_electric rail_fast ship" speed="8.33" length="11.39" shape="2894.79,1797.47 2892.38,1797.85 2890.19,1799.11 2888.23,1801.27 2886.48,1804.31"/>
    </edge>
    <edge id=":1203329991_1" function="internal">
        <lane id=":1203329991_1_0" index="0" disallow="tram rail_urban rail rail_electric rail_fast ship" speed="8.33" length="14.88" shape="2894.79,1797.47 2879.92,1796.84"/>
    </edge>
    <edge id=":1203329991_2" function="internal">
        <lane id=":1203329991_2_0" index="0" disallow="tram rail_urban rail rail_electric rail_fast ship" speed="3.65" length="4.67" shape="2894.79,1797.47 2893.61,1796.64 2893.23,1795.83 2893.66,1795.04 2894.88,1794.27"/>
    </edge>
    <edge id=":1203329991_3" function="internal">
        <lane id=":1203329991_3_0" index="0" disallow="tram rail_urban rail rail_electric rail_fast ship" speed="8.33" length="14.79" shape="2880.10,1793.64 2894.88,1794.27"/>
    </edge>
    <edge id=":1203329991_4" function="internal">
        <lane id=":1203329991_4_0" index="0" disallow="tram rail_urban rail rail_electric rail_fast ship" speed="7.49" length="15.92" shape="2880.10,1793.64 2884.66,1794.53 2887.24,1796.61 2887.85,1799.87 2886.48,1804.31"/>
    </edge>
    <edge id=":1203329991_5" function="internal">
        <lane id=":1203329991_5_0" index="0" disallow="tram rail_urban rail rail_electric rail_fast ship" speed="3.65" length="4.67" shape="2880.10,1793.64 2881.25,1794.50 2881.61,1795.32 2881.16,1796.10 2879.92,1796.84"/>
    </edge>
    <edge id=":1203329991_6" function="internal">
        <lane id=":1203329991_6_0" index="0" disallow="tram rail_urban rail rail_electric rail_fast ship" speed="5.79" length="9.63" shape="2883.58,1802.95 2884.70,1800.42 2884.47,1798.56 2882.87,1797.37 2879.92,1796.84"/>
    </edge>
    <edge id=":1203329991_7" function="internal">
        <lane id=":1203329991_7_0" index="0" disallow="tram rail_urban rail rail_electric rail_fast ship" speed="8.33" length="14.83" shape="2883.58,1802.95 2886.37,1799.10 2889.19,1796.37 2892.02,1794.76 2894.88,1794.27"/>
    </edge>
    <edge id=":1203329991_8" function="internal">
        <lane id=":1203329991_8_0" index="0" disallow="tram rail_urban rail rail_electric rail_fast ship" speed="3.71" length="4.68" shape="2883.58,1802.95 2884.82,1802.20 2885.71,1802.18 2886.27,1802.88 2886.48,1804.31"/>
    </edge>
    <edge id=":128170443_0" function="internal">
        <lane id=":128170443_0_0" index="0" disallow="tram rail_urban rail rail_electric rail_fast ship" speed="6.48" length="9.05" shape="1623.90,964.06 1623.41,961.62 1622.26,959.93 1620.45,958.99 1617.98,958.81"/>
    </edge>
    <edge id=":128170443_1" function="internal">
        <lane id=":128170443_1_0" index="0" disallow="tram rail_urban rail rail_electric rail_fast ship" speed="7.97" length="14.26" shape="1623.90,964.06 1624.24,960.15 1625.75,957.32 1628.43,955.55 1632.28,954.85"/>
    </edge>
    <edge id=":128170443_2" function="internal">
        <lane id=":128170443_2_0" index="0" disallow="tram rail_urban rail rail_electric rail_fast ship" speed="3.65" length="4.67" shape="1623.90,964.06 1624.63,962.81 1625.40,962.37 1626.23,962.72 1627.09,963.88"/>
    </edge>