<?xml version="1.0" encoding="UTF-8"?>

<!-- generated on Tue May 12 00:05:04 2020 by Eclipse SUMO netconvert Version v1_6_0+0167-c327852d01
<configuration xmlns:xsi="http://www.w3.org/2001/XMLSchema-instance" xsi:noNamespaceSchemaLocation="http://sumo.dlr.de/xsd/netconvertConfiguration.xsd">

    <input>
        <sumo-net-file value="osm.net.xml"/>
    </input>

    <output>
        <output-file value="osm2.net.xml"/>
        <output.street-names value="true"/>
    </output>

    <processing>
        <geometry.min-radius.fix.railways value="false"/>
        <geometry.max-grade.fix value="false"/>
        <offset.disable-normalization value="true"/>
        <lefthand value="false"/>
    </processing>

    <junctions>
        <no-turnarounds value="true"/>
        <junctions.corner-detail value="5"/>
        <junctions.limit-turn-speed value="5.5"/>
        <rectangular-lane-cut value="false"/>
    </junctions>

    <pedestrian>
        <walkingareas value="false"/>
    </pedestrian>

    <report>
        <aggregate-warnings value="5"/>
    </report>

</configuration>
-->

<net version="1.6" junctionCornerDetail="5" limitTurnSpeed="5.50" xmlns:xsi="http://www.w3.org/2001/XMLSchema-instance" xsi:noNamespaceSchemaLocation="http://sumo.dlr.de/xsd/net_file.xsd">

    <location netOffset="-567338.90,-7032313.30" convBoundary="276.63,923.54,3763.64,3155.00" origBoundary="9.83,63.38,10.65,63.60" projParameter="+proj=utm +zone=32 +ellps=WGS84 +datum=WGS84 +units=m +no_defs"/>

    <type id="highway.bridleway" priority="1" numLanes="1" speed="2.78" allow="pedestrian" oneway="1" width="2.00"/>
    <type id="highway.bus_guideway" priority="1" numLanes="1" speed="27.78" allow="bus" oneway="1"/>
    <type id="highway.cycleway" priority="1" numLanes="1" speed="8.33" allow="bicycle" oneway="0" width="1.00"/>
    <type id="highway.footway" priority="1" numLanes="1" speed="2.78" allow="pedestrian" oneway="1" width="2.00"/>
    <type id="highway.ford" priority="1" numLanes="1" speed="2.78" allow="army" oneway="0"/>
    <type id="highway.living_street" priority="2" numLanes="1" speed="2.78" disallow="tram rail_urban rail rail_electric rail_fast ship" oneway="0"/>
    <type id="highway.motorway" priority="14" numLanes="2" speed="39.44" allow="private emergency authority army vip passenger hov taxi bus coach delivery truck trailer motorcycle evehicle custom1 custom2" oneway="1"/>
    <type id="highway.motorway_link" priority="9" numLanes="1" speed="22.22" allow="private emergency authority army vip passenger hov taxi bus coach delivery truck trailer motorcycle evehicle custom1 custom2" oneway="1"/>
    <type id="highway.path" priority="1" numLanes="1" speed="2.78" allow="pedestrian bicycle" oneway="1" width="2.00"/>
    <type id="highway.pedestrian" priority="1" numLanes="1" speed="2.78" allow="pedestrian" oneway="1" width="2.00"/>
    <type id="highway.primary" priority="12" numLanes="2" speed="27.78" disallow="tram rail_urban rail rail_electric rail_fast ship" oneway="0"/>
    <type id="highway.primary_link" priority="7" numLanes="1" speed="22.22" disallow="tram rail_urban rail rail_electric rail_fast ship" oneway="0"/>
    <type id="highway.raceway" priority="15" numLanes="2" speed="83.33" allow="vip" oneway="0"/>
    <type id="highway.residential" priority="3" numLanes="1" speed="13.89" disallow="tram rail_urban rail rail_electric rail_fast ship" oneway="0"/>
    <type id="highway.secondary" priority="11" numLanes="1" speed="27.78" disallow="tram rail_urban rail rail_electric rail_fast ship" oneway="0"/>
    <type id="highway.secondary_link" priority="6" numLanes="1" speed="22.22" disallow="tram rail_urban rail rail_electric rail_fast ship" oneway="0"/>
    <type id="highway.service" priority="1" numLanes="1" speed="5.56" allow="pedestrian delivery bicycle" oneway="0"/>
    <type id="highway.stairs" priority="1" numLanes="1" speed="1.39" allow="pedestrian" oneway="1" width="2.00"/>
    <type id="highway.step" priority="1" numLanes="1" speed="1.39" allow="pedestrian" oneway="1" width="2.00"/>
    <type id="highway.steps" priority="1" numLanes="1" speed="1.39" allow="pedestrian" oneway="1" width="2.00"/>
    <type id="highway.tertiary" priority="10" numLanes="1" speed="22.22" disallow="tram rail_urban rail rail_electric rail_fast ship" oneway="0"/>
    <type id="highway.tertiary_link" priority="5" numLanes="1" speed="22.22" disallow="tram rail_urban rail rail_electric rail_fast ship" oneway="0"/>
    <type id="highway.track" priority="1" numLanes="1" speed="5.56" disallow="tram rail_urban rail rail_electric rail_fast ship" oneway="0"/>
    <type id="highway.trunk" priority="13" numLanes="2" speed="27.78" disallow="pedestrian bicycle tram rail_urban rail rail_electric rail_fast ship" oneway="0"/>
    <type id="highway.trunk_link" priority="8" numLanes="1" speed="22.22" disallow="pedestrian bicycle tram rail_urban rail rail_electric rail_fast ship" oneway="0"/>
    <type id="highway.unclassified" priority="4" numLanes="1" speed="13.89" disallow="tram rail_urban rail rail_electric rail_fast ship" oneway="0"/>
    <type id="highway.unsurfaced" priority="1" numLanes="1" speed="8.33" disallow="tram rail_urban rail rail_electric rail_fast ship" oneway="0"/>
    <type id="railway.highspeed" priority="21" numLanes="1" speed="69.44" allow="rail_fast" oneway="1"/>
    <type id="railway.light_rail" priority="19" numLanes="1" speed="27.78" allow="rail_urban" oneway="1"/>
    <type id="railway.preserved" priority="16" numLanes="1" speed="27.78" allow="rail" oneway="1"/>
    <type id="railway.rail" priority="20" numLanes="1" speed="44.44" allow="rail" oneway="1"/>
    <type id="railway.subway" priority="18" numLanes="1" speed="27.78" allow="rail_urban" oneway="1"/>
    <type id="railway.tram" priority="17" numLanes="1" speed="13.89" allow="tram" oneway="1"/>

    <edge id=":10137943_0" function="internal">
        <lane id=":10137943_0_0" index="0" disallow="tram rail_urban rail rail_electric rail_fast ship" speed="27.78" length="12.36" shape="3348.89,2721.56 3347.29,2724.29 3346.29,2726.67 3345.15,2729.22 3343.16,2732.48"/>
    </edge>
    <edge id=":10137943_1" function="internal">
        <lane id=":10137943_1_0" index="0" disallow="tram rail_urban rail rail_electric rail_fast ship" speed="3.65" length="2.44" shape="3348.89,2721.56 3347.55,2722.09 3346.67,2721.96 3346.62,2721.87"/>
    </edge>
    <edge id=":10137943_4" function="internal">
        <lane id=":10137943_4_0" index="0" disallow="tram rail_urban rail rail_electric rail_fast ship" speed="3.65" length="2.23" shape="3346.62,2721.87 3346.24,2721.18 3346.26,2719.73"/>
    </edge>
    <edge id=":10137943_2" function="internal">
        <lane id=":10137943_2_0" index="0" disallow="tram rail_urban rail rail_electric rail_fast ship" speed="18.84" length="11.72" shape="3337.27,2727.04 3340.11,2725.43 3342.33,2724.00 3344.27,2722.26 3346.26,2719.73"/>
    </edge>
    <edge id=":10137943_3" function="internal">
        <lane id=":10137943_3_0" index="0" disallow="tram rail_urban rail rail_electric rail_fast ship" speed="5.65" length="12.20" shape="3337.27,2727.04 3341.12,2725.18 3342.95,2725.16 3342.75,2726.98 3340.54,2730.63"/>
    </edge>
    <edge id=":105200_0" function="internal">
        <lane id=":105200_0_0" index="0" disallow="tram rail_urban rail rail_electric rail_fast ship" speed="6.52" length="9.00" shape="3266.40,2620.63 3263.94,2620.86 3262.14,2621.82 3260.99,2623.50 3260.51,2625.91"/>
    </edge>
    <edge id=":105200_1" function="internal">
        <lane id=":105200_1_0" index="0" disallow="tram rail_urban rail rail_electric rail_fast ship" speed="8.04" length="14.16" shape="3266.40,2620.63 3262.59,2619.90 3259.91,2618.13 3258.36,2615.33 3257.93,2611.48"/>
    </edge>
    <edge id=":105200_2" function="internal">
        <lane id=":105200_2_0" index="0" disallow="tram rail_urban rail rail_electric rail_fast ship" speed="3.65" length="2.55" shape="3266.40,2620.63 3265.24,2619.76 3264.88,2618.94 3264.99,2618.76"/>
    </edge>
    <edge id=":105200_9" function="internal">
        <lane id=":105200_9_0" index="0" disallow="tram rail_urban rail rail_electric rail_fast ship" speed="3.65" length="2.12" shape="3264.99,2618.76 3265.33,2618.17 3266.57,2617.43"/>
    </edge>
    <edge id=":105200_3" function="internal">
        <lane id=":105200_3_0" index="0" disallow="tram rail_urban rail rail_electric rail_fast ship" speed="6.56" length="9.07" shape="3261.13,2611.58 3261.40,2614.04 3262.40,2615.84 3264.12,2616.97 3266.57,2617.43"/>
    </edge>
    <edge id=":105200_4" function="internal">
        <lane id=":105200_4_0" index="0" disallow="tram rail_urban rail rail_electric rail_fast ship" speed="8.33" length="14.34" shape="3261.13,2611.58 3260.51,2625.91"/>
    </edge>
    <edge id=":105200_5" function="internal">
        <lane id=":105200_5_0" index="0" disallow="tram rail_urban rail rail_electric rail_fast ship" speed="3.65" length="2.08" shape="3261.13,2611.58 3260.29,2612.76 3259.71,2613.02"/>
    </edge>
    <edge id=":105200_10" function="internal">
        <lane id=":105200_10_0" index="0" disallow="tram rail_urban rail rail_electric rail_fast ship" speed="3.65" length="2.59" shape="3259.71,2613.02 3259.48,2613.13 3258.69,2612.71 3257.93,2611.48"/>
    </edge>
    <edge id=":105200_6" function="internal">
        <lane id=":105200_6_0" index="0" disallow="tram rail_urban rail rail_electric rail_fast ship" speed="8.33" length="14.26" shape="3257.32,2625.73 3257.93,2611.48"/>
    </edge>
    <edge id=":105200_7" function="internal">
        <lane id=":105200_7_0" index="0" disallow="tram rail_urban rail rail_electric rail_fast ship" speed="8.01" length="14.15" shape="3257.32,2625.73 3258.07,2621.95 3259.87,2619.30 3262.70,2617.79 3266.57,2617.43"/>
    </edge>
    <edge id=":105200_8" function="internal">
        <lane id=":105200_8_0" index="0" disallow="tram rail_urban rail rail_electric rail_fast ship" speed="3.65" length="4.67" shape="3257.32,2625.73 3258.18,2624.58 3259.00,2624.22 3259.78,2624.67 3260.51,2625.91"/>
    </edge>
    <edge id=":105513_0" function="internal">
        <lane id=":105513_0_0" index="0" disallow="tram rail_urban rail rail_electric rail_fast ship" speed="11.16" length="10.87" shape="885.77,1819.13 882.89,1817.83 880.64,1817.10 878.36,1817.06 875.40,1817.86"/>
    </edge>
    <edge id=":105513_1" function="internal">
        <lane id=":105513_1_0" index="0" disallow="tram rail_urban rail rail_electric rail_fast ship" speed="8.68" length="13.73" shape="885.77,1819.13 883.24,1817.38 881.67,1814.81 881.05,1811.43 881.39,1807.24"/>
    </edge>
    <edge id=":105513_2" function="internal">
        <lane id=":105513_2_0" index="0" disallow="tram rail_urban rail rail_electric rail_fast ship" speed="3.65" length="4.67" shape="885.77,1819.13 885.03,1817.89 885.01,1816.99 885.72,1816.44 887.15,1816.23"/>
    </edge>
    <edge id=":105513_3" function="internal">
        <lane id=":105513_3_0" index="0" disallow="tram rail_urban rail rail_electric rail_fast ship" speed="7.01" length="8.67" shape="884.38,1808.72 884.16,1811.37 884.55,1813.51 885.55,1815.13 887.15,1816.23"/>
    </edge>
    <edge id=":105513_4" function="internal">
        <lane id=":105513_4_0" index="0" disallow="tram rail_urban rail rail_electric rail_fast ship" speed="9.88" length="13.44" shape="884.38,1808.72 883.39,1811.68 881.57,1814.18 878.90,1816.24 875.40,1817.86"/>
    </edge>
    <edge id=":105513_5" function="internal">
        <lane id=":105513_5_0" index="0" disallow="tram rail_urban rail rail_electric rail_fast ship" speed="3.70" length="4.87" shape="884.38,1808.72 883.07,1809.47 882.14,1809.47 881.58,1808.73 881.39,1807.24"/>
    </edge>
    <edge id=":105513_6" function="internal">
        <lane id=":105513_6_0" index="0" disallow="tram rail_urban rail rail_electric rail_fast ship" speed="8.94" length="10.90" shape="874.33,1814.84 877.06,1813.55 879.14,1811.86 880.59,1809.75 881.39,1807.24"/>
    </edge>
    <edge id=":105513_7" function="internal">
        <lane id=":105513_7_0" index="0" disallow="tram rail_urban rail rail_electric rail_fast ship" speed="12.28" length="13.26" shape="874.33,1814.84 877.68,1814.07 880.79,1814.15 883.88,1814.92 887.15,1816.23"/>
    </edge>
    <edge id=":105513_8" function="internal">
        <lane id=":105513_8_0" index="0" disallow="tram rail_urban rail rail_electric rail_fast ship" speed="3.65" length="4.67" shape="874.33,1814.84 875.73,1815.19 876.37,1815.81 876.26,1816.70 875.40,1817.86"/>
    </edge>
    <edge id=":1073498465_0" function="internal">
        <lane id=":1073498465_0_0" index="0" disallow="tram rail_urban rail rail_electric rail_fast ship" speed="6.15" length="5.25" shape="882.91,1727.42 882.24,1725.69 881.53,1724.44 880.77,1723.64 879.98,1723.31"/>
    </edge>
    <edge id=":1073498465_1" function="internal">
        <lane id=":1073498465_1_0" index="0" disallow="tram rail_urban rail rail_electric rail_fast ship" speed="12.55" length="5.24" shape="885.05,1722.35 883.58,1722.89 882.56,1723.26 881.51,1723.41 879.98,1723.31"/>
    </edge>
    <edge id=":1074801729_0" function="internal">
        <lane id=":1074801729_0_0" index="0" disallow="tram rail_urban rail rail_electric rail_fast ship" speed="11.87" length="8.58" shape="2924.93,2208.25 2922.53,2207.76 2920.83,2207.99 2919.12,2208.69 2916.72,2209.59"/>
    </edge>
    <edge id=":1074801729_1" function="internal">
        <lane id=":1074801729_1_0" index="0" disallow="tram rail_urban rail rail_electric rail_fast ship" speed="12.54" length="9.61" shape="2924.93,2208.25 2922.25,2207.20 2920.36,2206.35 2918.46,2206.02 2915.77,2206.53"/>
    </edge>
    <edge id=":1074801729_2" function="internal">
        <lane id=":1074801729_2_0" index="0" disallow="tram rail_urban rail rail_electric rail_fast ship" speed="9.93" length="8.98" shape="2924.93,2208.25 2922.24,2207.16 2920.05,2205.76 2918.37,2204.06 2917.20,2202.05"/>
        <lane id=":1074801729_2_1" index="1" disallow="tram rail_urban rail rail_electric rail_fast ship" speed="8.69" length="8.98" shape="2925.90,2205.21 2923.85,2204.38 2922.19,2203.32 2920.92,2202.04 2920.03,2200.54"/>
    </edge>
    <edge id=":1074801773_0" function="internal">
        <lane id=":1074801773_0_0" index="0" disallow="tram rail_urban rail rail_electric rail_fast ship" speed="13.89" length="10.93" shape="2936.63,2212.07 2933.86,2210.72 2931.97,2209.69 2930.00,2209.01 2927.00,2208.74"/>
        <lane id=":1074801773_0_1" index="1" disallow="tram rail_urban rail rail_electric rail_fast ship" speed="13.89" length="10.93" shape="2937.87,2209.12 2934.77,2207.64 2932.63,2206.53 2930.41,2205.82 2927.06,2205.54"/>
    </edge>
    <edge id=":1074801773_2" function="internal">
        <lane id=":1074801773_2_0" index="0" disallow="tram rail_urban rail rail_electric rail_fast ship" speed="10.01" length="10.24" shape="2937.42,2204.69 2935.55,2206.50 2933.20,2207.78 2930.35,2208.53 2927.00,2208.74"/>
        <lane id=":1074801773_2_1" index="1" disallow="tram rail_urban rail rail_electric rail_fast ship" speed="11.72" length="10.24" shape="2935.18,2202.56 2933.03,2204.08 2931.41,2205.01 2929.65,2205.45 2927.06,2205.54"/>
    </edge>
    <edge id=":1077286388_0" function="internal">
        <lane id=":1077286388_0_0" index="0" disallow="tram rail_urban rail rail_electric rail_fast ship" speed="27.78" length="0.28" shape="3142.93,2745.81 3142.64,2745.81"/>
    </edge>
    <edge id=":1077286388_1" function="internal">
        <lane id=":1077286388_1_0" index="0" disallow="tram rail_urban rail rail_electric rail_fast ship" speed="27.78" length="0.30" shape="3142.52,2742.62 3142.82,2742.60"/>
    </edge>
    <edge id=":1077665381_0" function="internal">
        <lane id=":1077665381_0_0" index="0" disallow="tram rail_urban rail rail_electric rail_fast ship" speed="7.13" length="6.76" shape="2698.98,3092.93 2697.40,3092.83 2695.88,3093.20 2694.42,3094.05 2693.03,3095.38"/>
    </edge>
    <edge id=":1077665381_1" function="internal">
        <lane id=":1077665381_1_0" index="0" disallow="tram rail_urban rail rail_electric rail_fast ship" speed="13.89" length="7.39" shape="2698.98,3092.93 2696.85,3092.43 2695.44,3091.91 2694.13,3091.15 2692.32,3089.92"/>
    </edge>
    <edge id=":1077665407_0" function="internal">
        <lane id=":1077665407_0_0" index="0" disallow="pedestrian bicycle tram rail_urban rail rail_electric rail_fast ship" speed="6.94" length="7.21" shape="2765.28,3038.71 2763.67,3037.50 2762.03,3036.86 2760.36,3036.78 2758.66,3037.26"/>
    </edge>
    <edge id=":1077665407_1" function="internal">
        <lane id=":1077665407_1_0" index="0" disallow="pedestrian bicycle tram rail_urban rail rail_electric rail_fast ship" speed="13.09" length="7.43" shape="2765.29,3032.90 2763.79,3034.71 2762.47,3035.68 2760.90,3036.35 2758.66,3037.26"/>
        <lane id=":1077665407_1_1" index="1" disallow="pedestrian bicycle tram rail_urban rail rail_electric rail_fast ship" speed="27.78" length="7.43" shape="2763.02,3030.71 2761.47,3031.97 2760.37,3032.80 2759.18,3033.49 2757.37,3034.33"/>
    </edge>
    <edge id=":1077665421_0" function="internal">
        <lane id=":1077665421_0_0" index="0" disallow="tram rail_urban rail rail_electric rail_fast ship" speed="13.89" length="7.19" shape="2690.86,3088.73 2689.67,3086.96 2688.90,3085.71 2688.33,3084.36 2687.73,3082.32"/>
    </edge>
    <edge id=":1077665421_1" function="internal">
        <lane id=":1077665421_1_0" index="0" disallow="tram rail_urban rail rail_electric rail_fast ship" speed="7.42" length="6.66" shape="2685.72,3088.40 2686.89,3086.83 2687.62,3085.29 2687.90,3083.79 2687.73,3082.32"/>
    </edge>
    <edge id=":1077665436_0" function="internal">
        <lane id=":1077665436_0_0" index="0" disallow="pedestrian bicycle tram rail_urban rail rail_electric rail_fast ship" speed="9.17" length="6.75" shape="2883.93,2857.63 2884.49,2863.23"/>
        <lane id=":1077665436_0_1" index="1" disallow="pedestrian bicycle tram rail_urban rail rail_electric rail_fast ship" speed="10.76" length="6.75" shape="2880.80,2858.27 2880.97,2860.63 2880.81,2862.41 2881.04,2863.96 2882.38,2865.64"/>
    </edge>
    <edge id=":1077665436_2" function="internal">
        <lane id=":1077665436_2_0" index="0" disallow="pedestrian bicycle tram rail_urban rail rail_electric rail_fast ship" speed="9.93" length="6.75" shape="2877.59,2861.40 2879.79,2861.39 2881.37,2861.47 2882.77,2861.97 2884.49,2863.23"/>
        <lane id=":1077665436_2_1" index="1" disallow="pedestrian bicycle tram rail_urban rail rail_electric rail_fast ship" speed="9.05" length="6.75" shape="2876.62,2864.58 2878.45,2864.51 2879.77,2864.42 2880.96,2864.67 2882.38,2865.64"/>
    </edge>
    <edge id=":1077665448_0" function="internal">
        <lane id=":1077665448_0_0" index="0" disallow="pedestrian bicycle tram rail_urban rail rail_electric rail_fast ship" speed="8.84" length="7.77" shape="2771.84,3012.39 2770.37,3014.53 2769.40,3016.41 2768.91,3018.03 2768.90,3019.39"/>
    </edge>
    <edge id=":1077665448_1" function="internal">
        <lane id=":1077665448_1_0" index="0" disallow="pedestrian bicycle tram rail_urban rail rail_electric rail_fast ship" speed="10.18" length="10.44" shape="2769.28,3010.46 2767.46,3013.19 2766.26,3015.69 2765.70,3017.96 2765.76,3020.01"/>
    </edge>
    <edge id=":1077665448_2" function="internal">
        <lane id=":1077665448_2_0" index="0" disallow="pedestrian bicycle tram rail_urban rail rail_electric rail_fast ship" speed="11.11" length="9.77" shape="2764.45,3010.44 2766.71,3012.39 2767.83,3014.18 2768.37,3016.33 2768.90,3019.39"/>
        <lane id=":1077665448_2_1" index="1" disallow="pedestrian bicycle tram rail_urban rail rail_electric rail_fast ship" speed="10.42" length="9.77" shape="2761.59,3012.31 2763.61,3014.00 2764.68,3015.52 2765.25,3017.36 2765.76,3020.01"/>
    </edge>
    <edge id=":1078388837_0" function="internal">
        <lane id=":1078388837_0_0" index="0" disallow="tram rail_urban rail rail_electric rail_fast ship" speed="13.89" length="8.38" shape="897.69,1653.60 897.75,1656.10 898.56,1657.79 899.38,1659.49 899.48,1661.99"/>
        <lane id=":1078388837_0_1" index="1" disallow="tram rail_urban rail rail_electric rail_fast ship" speed="13.89" length="8.38" shape="897.69,1653.60 896.32,1661.48"/>
    </edge>
    <edge id=":1078388837_2" function="internal">
        <lane id=":1078388837_2_0" index="0" disallow="tram rail_urban rail rail_electric rail_fast ship" speed="13.89" length="8.84" shape="890.07,1660.46 890.95,1658.10 892.28,1656.75 893.62,1655.40 894.54,1653.04"/>
    </edge>
    <edge id=":1078388889_0" function="internal">
        <lane id=":1078388889_0_0" index="0" disallow="tram rail_urban rail rail_electric rail_fast ship" speed="22.22" length="5.19" shape="891.88,1740.27 891.47,1741.75 891.34,1742.79 891.33,1743.86 891.28,1745.40"/>
    </edge>
    <edge id=":1078388889_1" function="internal">
        <lane id=":1078388889_1_0" index="0" disallow="tram rail_urban rail rail_electric rail_fast ship" speed="4.93" length="4.36" shape="891.88,1740.27 890.73,1743.00 889.74,1743.98"/>
    </edge>
    <edge id=":1078388889_4" function="internal">
        <lane id=":1078388889_4_0" index="0" disallow="tram rail_urban rail rail_electric rail_fast ship" speed="4.93" length="3.77" shape="889.74,1743.98 889.63,1744.09 888.56,1743.55 887.54,1741.36"/>
    </edge>
    <edge id=":1078388889_2" function="internal">
        <lane id=":1078388889_2_0" index="0" disallow="tram rail_urban rail rail_electric rail_fast ship" speed="13.15" length="3.90" shape="888.09,1745.18 888.14,1744.03 888.09,1743.24 887.90,1742.46 887.54,1741.36"/>
    </edge>
    <edge id=":1078388889_3" function="internal">
        <lane id=":1078388889_3_0" index="0" disallow="tram rail_urban rail rail_electric rail_fast ship" speed="3.65" length="2.34" shape="888.09,1745.18 888.97,1744.04 889.79,1743.69"/>
    </edge>
    <edge id=":1078388889_5" function="internal">
        <lane id=":1078388889_5_0" index="0" disallow="tram rail_urban rail rail_electric rail_fast ship" speed="3.65" length="2.34" shape="889.79,1743.69 890.56,1744.15 891.28,1745.40"/>
    </edge>
    <edge id=":1139001891_0" function="internal">
        <lane id=":1139001891_0_0" index="0" disallow="tram rail_urban rail rail_electric rail_fast ship" speed="27.78" length="5.28" shape="2538.59,2603.04 2537.03,2602.95 2535.95,2602.91 2534.88,2603.00 2533.37,2603.35"/>
    </edge>
    <edge id=":1139001891_1" function="internal">
        <lane id=":1139001891_1_0" index="0" disallow="tram rail_urban rail rail_electric rail_fast ship" speed="3.65" length="2.51" shape="2538.59,2603.04 2537.42,2602.19 2537.05,2601.38 2537.14,2601.23"/>
    </edge>
    <edge id=":1139001891_4" function="internal">
        <lane id=":1139001891_4_0" index="0" disallow="tram rail_urban rail rail_electric rail_fast ship" speed="3.65" length="2.16" shape="2537.14,2601.23 2537.48,2600.59 2538.71,2599.84"/>
    </edge>
    <edge id=":1139001891_2" function="internal">
        <lane id=":1139001891_2_0" index="0" disallow="tram rail_urban rail rail_electric rail_fast ship" speed="27.78" length="3.66" shape="2535.09,2599.31 2538.71,2599.84"/>
    </edge>
    <edge id=":1139001891_3" function="internal">
        <lane id=":1139001891_3_0" index="0" disallow="tram rail_urban rail rail_electric rail_fast ship" speed="5.43" length="5.88" shape="2535.09,2599.31 2538.59,2599.96 2539.47,2600.84 2538.56,2601.43"/>
    </edge>
    <edge id=":1139001891_5" function="internal">
        <lane id=":1139001891_5_0" index="0" disallow="tram rail_urban rail rail_electric rail_fast ship" speed="5.43" length="5.57" shape="2538.56,2601.43 2537.73,2601.98 2533.37,2603.35"/>
    </edge>
    <edge id=":1139002566_0" function="internal">
        <lane id=":1139002566_0_0" index="0" disallow="tram rail_urban rail rail_electric rail_fast ship" speed="7.20" length="6.50" shape="2512.40,2476.72 2511.55,2475.16 2510.48,2473.96 2509.19,2473.14 2507.67,2472.70"/>
    </edge>
    <edge id=":1139002566_1" function="internal">
        <lane id=":1139002566_1_0" index="0" disallow="tram rail_urban rail rail_electric rail_fast ship" speed="5.51" length="8.66" shape="2512.40,2476.72 2511.43,2473.72 2511.44,2471.67 2512.44,2470.57 2514.41,2470.43"/>
    </edge>
    <edge id=":1139002566_2" function="internal">
        <lane id=":1139002566_2_0" index="0" disallow="tram rail_urban rail rail_electric rail_fast ship" speed="11.11" length="6.39" shape="2513.99,2473.60 2507.67,2472.70"/>
    </edge>
    <edge id=":1139002566_3" function="internal">
        <lane id=":1139002566_3_0" index="0" disallow="tram rail_urban rail rail_electric rail_fast ship" speed="3.65" length="2.34" shape="2513.99,2473.60 2512.91,2472.65 2512.62,2471.80"/>
    </edge>
    <edge id=":1139002566_7" function="internal">
        <lane id=":1139002566_7_0" index="0" disallow="tram rail_urban rail rail_electric rail_fast ship" speed="3.65" length="2.34" shape="2512.62,2471.80 2513.12,2471.06 2514.41,2470.43"/>
    </edge>
    <edge id=":1139002566_4" function="internal">
        <lane id=":1139002566_4_0" index="0" disallow="tram rail_urban rail rail_electric rail_fast ship" speed="11.11" length="6.26" shape="2508.67,2466.38 2514.83,2467.25"/>
        <lane id=":1139002566_4_1" index="1" disallow="tram rail_urban rail rail_electric rail_fast ship" speed="11.11" length="6.26" shape="2508.17,2469.54 2514.41,2470.43"/>
    </edge>
    <edge id=":1139002566_6" function="internal">
        <lane id=":1139002566_6_0" index="0" disallow="tram rail_urban rail rail_electric rail_fast ship" speed="3.65" length="2.34" shape="2508.17,2469.54 2509.23,2470.52 2509.50,2471.37"/>
    </edge>
    <edge id=":1139002566_8" function="internal">
        <lane id=":1139002566_8_0" index="0" disallow="tram rail_urban rail rail_electric rail_fast ship" speed="3.65" length="2.34" shape="2509.50,2471.37 2508.98,2472.10 2507.67,2472.70"/>
    </edge>
    <edge id=":1139392922_0" function="internal">
        <lane id=":1139392922_0_0" index="0" disallow="tram rail_urban rail rail_electric rail_fast ship" speed="8.34" length="0.31" shape="1967.52,2129.19 1967.25,2129.04"/>
    </edge>
    <edge id=":1139392922_1" function="internal">
        <lane id=":1139392922_1_0" index="0" disallow="tram rail_urban rail rail_electric rail_fast ship" speed="8.34" length="0.29" shape="1968.71,2126.20 1968.96,2126.33"/>
    </edge>
    <edge id=":1168181127_0" function="internal">
        <lane id=":1168181127_0_0" index="0" disallow="tram rail_urban rail rail_electric rail_fast ship" speed="3.65" length="4.67" shape="3256.84,2733.52 3256.01,2734.70 3255.20,2735.08 3254.41,2734.66 3253.64,2733.44"/>
    </edge>
    <edge id=":1203329904_0" function="internal">
        <lane id=":1203329904_0_0" index="0" disallow="tram rail_urban rail rail_electric rail_fast ship" speed="15.52" length="14.62" shape="2794.54,2588.42 2793.02,2584.08 2791.39,2580.98 2789.40,2578.58 2786.85,2576.34"/>
    </edge>
    <edge id=":1203329904_1" function="internal">
        <lane id=":1203329904_1_0" index="0" disallow="tram rail_urban rail rail_electric rail_fast ship" speed="20.84" length="14.65" shape="2794.54,2588.42 2793.49,2584.17 2793.13,2581.18 2792.93,2578.15 2792.34,2573.78"/>
        <lane id=":1203329904_1_1" index="1" disallow="tram rail_urban rail rail_electric rail_fast ship" speed="20.84" length="14.65" shape="2797.61,2587.50 2796.58,2583.35 2796.25,2580.44 2796.06,2577.48 2795.49,2573.23"/>
    </edge>
    <edge id=":1203329911_0" function="internal">
        <lane id=":1203329911_0_0" index="0" disallow="tram rail_urban rail rail_electric rail_fast ship" speed="9.05" length="7.39" shape="2775.04,2571.52 2772.63,2570.96 2770.61,2570.73 2769.00,2570.83 2767.79,2571.24"/>
    </edge>
    <edge id=":1203329911_1" function="internal">
        <lane id=":1203329911_1_0" index="0" disallow="tram rail_urban rail rail_electric rail_fast ship" speed="27.78" length="7.74" shape="2774.47,2567.31 2767.79,2571.24"/>
    </edge>
    <edge id=":1203329991_0" function="internal">
        <lane id=":1203329991_0_0" index="0" disallow="tram rail_urban rail rail_electric rail_fast ship" speed="8.33" length="11.39" shape="3064.79,2697.47 3062.38,2697.85 3060.19,2699.11 3058.23,2701.27 3056.48,2704.31"/>
    </edge>
    <edge id=":1203329991_1" function="internal">
        <lane id=":1203329991_1_0" index="0" disallow="tram rail_urban rail rail_electric rail_fast ship" speed="8.33" length="14.88" shape="3064.79,2697.47 3049.92,2696.84"/>
    </edge>
    <edge id=":1203329991_2" function="internal">
        <lane id=":1203329991_2_0" index="0" disallow="tram rail_urban rail rail_electric rail_fast ship" speed="3.65" length="4.67" shape="3064.79,2697.47 3063.61,2696.64 3063.23,2695.83 3063.66,2695.04 3064.88,2694.27"/>
    </edge>
    <edge id=":1203329991_3" function="internal">
        <lane id=":1203329991_3_0" index="0" disallow="tram rail_urban rail rail_electric rail_fast ship" speed="8.33" length="14.79" shape="3050.10,2693.64 3064.88,2694.27"/>
    </edge>
    <edge id=":1203329991_4" function="internal">
        <lane id=":1203329991_4_0" index="0" disallow="tram rail_urban rail rail_electric rail_fast ship" speed="7.49" length="15.92" shape="3050.10,2693.64 3054.66,2694.53 3057.24,2696.61 3057.85,2699.87 3056.48,2704.31"/>
    </edge>
    <edge id=":1203329991_5" function="internal">
        <lane id=":1203329991_5_0" index="0" disallow="tram rail_urban rail rail_electric rail_fast ship" speed="3.65" length="4.67" shape="3050.10,2693.64 3051.25,2694.50 3051.61,2695.32 3051.16,2696.10 3049.92,2696.84"/>
    </edge>
    <edge id=":1203329991_6" function="internal">
        <lane id=":1203329991_6_0" index="0" disallow="tram rail_urban rail rail_electric rail_fast ship" speed="5.79" length="9.63" shape="3053.58,2702.95 3054.70,2700.42 3054.47,2698.56 3052.87,2697.37 3049.92,2696.84"/>
    </edge>
    <edge id=":1203329991_7" function="internal">