<additional xmlns:xsi="http://www.w3.org/2001/XMLSchema-instance" xsi:noNamespaceSchemaLocation="http://sumo.dlr.de/xsd/additional_file.xsd">
<poly id="poly_0" color="255,0,0,100" fill="1" layer="128.00" shape="0,0 100,0 100,100 0,100"/>
<poly id="poly_1" color="255,0,0,100" fill="1" layer="128.00" shape="0,100 100,100 100,200 0,200"/>
<poly id="poly_2" color="255,0,0,100" fill="1" layer="128.00" shape="0,200 100,200 100,300 0,300"/>
<poly id="poly_3" color="255,0,0,100" fill="1" layer="128.00" shape="0,300 100,300 100,400 0,400"/>
<poly id="poly_4" color="255,0,0,100" fill="1" layer="128.00" shape="0,400 100,400 100,500 0,500"/>
<poly id="poly_5" color="255,0,0,100" fill="1" layer="128.00" shape="0,500 100,500 100,600 0,600"/>
<poly id="poly_6" color="255,0,0,100" fill="1" layer="128.00" shape="0,600 100,600 100,700 0,700"/>
<poly id="poly_7" color="255,0,0,100" fill="1" layer="128.00" shape="0,700 100,700 100,800 0,800"/>
<poly id="poly_8" color="255,0,0,100" fill="1" layer="128.00" shape="0,800 100,800 100,900 0,900"/>
<poly id="poly_9" color="255,0,0,100" fill="1" layer="128.00" shape="0,900 100,900 100,1000 0,1000"/>
<poly id="poly_10" color="255,0,0,100" fill="1" layer="128.00" shape="0,1000 100,1000 100,1100 0,1100"/>
<poly id="poly_11" color="255,0,0,100" fill="1" layer="128.00" shape="0,1100 100,1100 100,1200 0,1200"/>
<poly id="poly_12" color="255,0,0,100" fill="1" layer="128.00" shape="0,1200 100,1200 100,1300 0,1300"/>
<poly id="poly_13" color="255,0,0,100" fill="1" layer="128.00" shape="0,1300 100,1300 100,1400 0,1400"/>
<poly id="poly_14" color="255,0,0,100" fill="1" layer="128.00" shape="0,1400 100,1400 100,1500 0,1500"/>
<poly id="poly_15" color="255,0,0,100" fill="1" layer="128.00" shape="0,1500 100,1500 100,1600 0,1600"/>
<poly id="poly_16" color="255,0,0,100" fill="1" layer="128.00" shape="0,1600 100,1600 100,1700 0,1700"/>
<poly id="poly_17" color="255,0,0,100" fill="1" layer="128.00" shape="0,1700 100,1700 100,1800 0,1800"/>
<poly id="poly_18" color="255,0,0,100" fill="1" layer="128.00" shape="0,1800 100,1800 100,1900 0,1900"/>
<poly id="poly_19" color="255,0,0,100" fill="1" layer="128.00" shape="0,1900 100,1900 100,2000 0,2000"/>
<poly id="poly_20" color="255,0,0,100" fill="1" layer="128.00" shape="0,2000 100,2000 100,2100 0,2100"/>
<poly id="poly_21" color="255,0,0,100" fill="1" layer="128.00" shape="0,2100 100,2100 100,2200 0,2200"/>
<poly id="poly_22" color="255,0,0,100" fill="1" layer="128.00" shape="0,2200 100,2200 100,2300 0,2300"/>
<poly id="poly_23" color="255,0,0,100" fill="1" layer="128.00" shape="0,2300 100,2300 100,2400 0,2400"/>
<poly id="poly_24" color="255,0,0,100" fill="1" layer="128.00" shape="100,0 200,0 200,100 100,100"/>
<poly id="poly_25" color="255,0,0,100" fill="1" layer="128.00" shape="100,100 200,100 200,200 100,200"/>
<poly id="poly_26" color="255,0,0,100" fill="1" layer="128.00" shape="100,200 200,200 200,300 100,300"/>
<poly id="poly_27" color="255,0,0,100" fill="1" layer="128.00" shape="100,300 200,300 200,400 100,400"/>
<poly id="poly_28" color="255,0,0,100" fill="1" layer="128.00" shape="100,400 200,400 200,500 100,500"/>
<poly id="poly_29" color="255,0,0,100" fill="1" layer="128.00" shape="100,500 200,500 200,600 100,600"/>
<poly id="poly_30" color="255,0,0,100" fill="1" layer="128.00" shape="100,600 200,600 200,700 100,700"/>
<poly id="poly_31" color="255,0,0,100" fill="1" layer="128.00" shape="100,700 200,700 200,800 100,800"/>
<poly id="poly_32" color="255,0,0,100" fill="1" layer="128.00" shape="100,800 200,800 200,900 100,900"/>
<poly id="poly_33" color="255,0,0,100" fill="1" layer="128.00" shape="100,900 200,900 200,1000 100,1000"/>
<poly id="poly_34" color="255,0,0,100" fill="1" layer="128.00" shape="100,1000 200,1000 200,1100 100,1100"/>
<poly id="poly_35" color="255,0,0,100" fill="1" layer="128.00" shape="100,1100 200,1100 200,1200 100,1200"/>
<poly id="poly_36" color="255,0,0,100" fill="1" layer="128.00" shape="100,1200 200,1200 200,1300 100,1300"/>
<poly id="poly_37" color="255,0,0,100" fill="1" layer="128.00" shape="100,1300 200,1300 200,1400 100,1400"/>
<poly id="poly_38" color="255,0,0,100" fill="1" layer="128.00" shape="100,1400 200,1400 200,1500 100,1500"/>
<poly id="poly_39" color="255,0,0,100" fill="1" layer="128.00" shape="100,1500 200,1500 200,1600 100,1600"/>
<poly id="poly_40" color="255,0,0,100" fill="1" layer="128.00" shape="100,1600 200,1600 200,1700 100,1700"/>
<poly id="poly_41" color="255,0,0,100" fill="1" layer="128.00" shape="100,1700 200,1700 200,1800 100,1800"/>
<poly id="poly_42" color="255,0,0,100" fill="1" layer="128.00" shape="100,1800 200,1800 200,1900 100,1900"/>
<poly id="poly_43" color="255,0,0,100" fill="1" layer="128.00" shape="100,1900 200,1900 200,2000 100,2000"/>
<poly id="poly_44" color="255,0,0,100" fill="1" layer="128.00" shape="100,2000 200,2000 200,2100 100,2100"/>
<poly id="poly_45" color="255,0,0,100" fill="1" layer="128.00" shape="100,2100 200,2100 200,2200 100,2200"/>
<poly id="poly_46" color="255,0,0,100" fill="1" layer="128.00" shape="100,2200 200,2200 200,2300 100,2300"/>
<poly id="poly_47" color="255,0,0,100" fill="1" layer="128.00" shape="100,2300 200,2300 200,2400 100,2400"/>
<poly id="poly_48" color="255,0,0,100" fill="1" layer="128.00" shape="200,0 300,0 300,100 200,100"/>
<poly id="poly_49" color="255,0,0,100" fill="1" layer="128.00" shape="200,100 300,100 300,200 200,200"/>
<poly id="poly_50" color="255,0,0,100" fill="1" layer="128.00" shape="200,200 300,200 300,300 200,300"/>
<poly id="poly_51" color="255,0,0,100" fill="1" layer="128.00" shape="200,300 300,300 300,400 200,400"/>
<poly id="poly_52" color="255,0,0,100" fill="1" layer="128.00" shape="200,400 300,400 300,500 200,500"/>
<poly id="poly_53" color="255,0,0,100" fill="1" layer="128.00" shape="200,500 300,500 300,600 200,600"/>
<poly id="poly_54" color="255,0,0,100" fill="1" layer="128.00" shape="200,600 300,600 300,700 200,700"/>
<poly id="poly_55" color="255,0,0,100" fill="1" layer="128.00" shape="200,700 300,700 300,800 200,800"/>
<poly id="poly_56" color="255,0,0,100" fill="1" layer="128.00" shape="200,800 300,800 300,900 200,900"/>
<poly id="poly_57" color="255,0,0,100" fill="1" layer="128.00" shape="200,900 300,900 300,1000 200,1000"/>
<poly id="poly_58" color="255,0,0,100" fill="1" layer="128.00" shape="200,1000 300,1000 300,1100 200,1100"/>
<poly id="poly_59" color="255,0,0,100" fill="1" layer="128.00" shape="200,1100 300,1100 300,1200 200,1200"/>
<poly id="poly_60" color="255,0,0,100" fill="1" layer="128.00" shape="200,1200 300,1200 300,1300 200,1300"/>
<poly id="poly_61" color="255,0,0,100" fill="1" layer="128.00" shape="200,1300 300,1300 300,1400 200,1400"/>
<poly id="poly_62" color="255,0,0,100" fill="1" layer="128.00" shape="200,1400 300,1400 300,1500 200,1500"/>
<poly id="poly_63" color="255,0,0,100" fill="1" layer="128.00" shape="200,1500 300,1500 300,1600 200,1600"/>
<poly id="poly_64" color="255,0,0,100" fill="1" layer="128.00" shape="200,1600 300,1600 300,1700 200,1700"/>
<poly id="poly_65" color="255,0,0,100" fill="1" layer="128.00" shape="200,1700 300,1700 300,1800 200,1800"/>
<poly id="poly_66" color="255,0,0,100" fill="1" layer="128.00" shape="200,1800 300,1800 300,1900 200,1900"/>
<poly id="poly_67" color="255,0,0,100" fill="1" layer="128.00" shape="200,1900 300,1900 300,2000 200,2000"/>
<poly id="poly_68" color="255,0,0,100" fill="1" layer="128.00" shape="200,2000 300,2000 300,2100 200,2100"/>
<poly id="poly_69" color="255,0,0,100" fill="1" layer="128.00" shape="200,2100 300,2100 300,2200 200,2200"/>
<poly id="poly_70" color="255,0,0,100" fill="1" layer="128.00" shape="200,2200 300,2200 300,2300 200,2300"/>
<poly id="poly_71" color="255,0,0,100" fill="1" layer="128.00" shape="200,2300 300,2300 300,2400 200,2400"/>
<poly id="poly_72" color="255,0,0,100" fill="1" layer="128.00" shape="300,0 400,0 400,100 300,100"/>
<poly id="poly_73" color="255,0,0,100" fill="1" layer="128.00" shape="300,100 400,100 400,200 300,200"/>
<poly id="poly_74" color="255,0,0,100" fill="1" layer="128.00" shape="300,200 400,200 400,300 300,300"/>
<poly id="poly_75" color="255,0,0,100" fill="1" layer="128.00" shape="300,300 400,300 400,400 300,400"/>
<poly id="poly_76" color="255,0,0,100" fill="1" layer="128.00" shape="300,400 400,400 400,500 300,500"/>
<poly id="poly_77" color="255,0,0,100" fill="1" layer="128.00" shape="300,500 400,500 400,600 300,600"/>
<poly id="poly_78" color="255,0,0,100" fill="1" layer="128.00" shape="300,600 400,600 400,700 300,700"/>
<poly id="poly_79" color="255,0,0,100" fill="1" layer="128.00" shape="300,700 400,700 400,800 300,800"/>
<poly id="poly_80" color="255,0,0,100" fill="1" layer="128.00" shape="300,800 400,800 400,900 300,900"/>
<poly id="poly_81" color="255,0,0,100" fill="1" layer="128.00" shape="300,900 400,900 400,1000 300,1000"/>
<poly id="poly_82" color="255,0,0,100" fill="1" layer="128.00" shape="300,1000 400,1000 400,1100 300,1100"/>
<poly id="poly_83" color="255,0,0,100" fill="1" layer="128.00" shape="300,1100 400,1100 400,1200 300,1200"/>
<poly id="poly_84" color="255,0,0,100" fill="1" layer="128.00" shape="300,1200 400,1200 400,1300 300,1300"/>
<poly id="poly_85" color="255,0,0,100" fill="1" layer="128.00" shape="300,1300 400,1300 400,1400 300,1400"/>
<poly id="poly_86" color="255,0,0,100" fill="1" layer="128.00" shape="300,1400 400,1400 400,1500 300,1500"/>
<poly id="poly_87" color="255,0,0,100" fill="1" layer="128.00" shape="300,1500 400,1500 400,1600 300,1600"/>
<poly id="poly_88" color="255,0,0,100" fill="1" layer="128.00" shape="300,1600 400,1600 400,1700 300,1700"/>
<poly id="poly_89" color="255,0,0,100" fill="1" layer="128.00" shape="300,1700 400,1700 400,1800 300,1800"/>
<poly id="poly_90" color="255,0,0,100" fill="1" layer="128.00" shape="300,1800 400,1800 400,1900 300,1900"/>
<poly id="poly_91" color="255,0,0,100" fill="1" layer="128.00" shape="300,1900 400,1900 400,2000 300,2000"/>
<poly id="poly_92" color="255,0,0,100" fill="1" layer="128.00" shape="300,2000 400,2000 400,2100 300,2100"/>
<poly id="poly_93" color="255,0,0,100" fill="1" layer="128.00" shape="300,2100 400,2100 400,2200 300,2200"/>
<poly id="poly_94" color="255,0,0,100" fill="1" layer="128.00" shape="300,2200 400,2200 400,2300 300,2300"/>
<poly id="poly_95" color="255,0,0,100" fill="1" layer="128.00" shape="300,2300 400,2300 400,2400 300,2400"/>
<poly id="poly_96" color="255,0,0,100" fill="1" layer="128.00" shape="400,0 500,0 500,100 400,100"/>
<poly id="poly_97" color="255,0,0,100" fill="1" layer="128.00" shape="400,100 500,100 500,200 400,200"/>
<poly id="poly_98" color="255,0,0,100" fill="1" layer="128.00" shape="400,200 500,200 500,300 400,300"/>
<poly id="poly_99" color="255,0,0,100" fill="1" layer="128.00" shape="400,300 500,300 500,400 400,400"/>
<poly id="poly_100" color="255,0,0,100" fill="1" layer="128.00" shape="400,400 500,400 500,500 400,500"/>
<poly id="poly_101" color="255,0,0,100" fill="1" layer="128.00" shape="400,500 500,500 500,600 400,600"/>
<poly id="poly_102" color="255,0,0,100" fill="1" layer="128.00" shape="400,600 500,600 500,700 400,700"/>
<poly id="poly_103" color="255,0,0,100" fill="1" layer="128.00" shape="400,700 500,700 500,800 400,800"/>
<poly id="poly_104" color="255,0,0,100" fill="1" layer="128.00" shape="400,800 500,800 500,900 400,900"/>
<poly id="poly_105" color="255,0,0,100" fill="1" layer="128.00" shape="400,900 500,900 500,1000 400,1000"/>
<poly id="poly_106" color="255,0,0,100" fill="1" layer="128.00" shape="400,1000 500,1000 500,1100 400,1100"/>
<poly id="poly_107" color="255,0,0,100" fill="1" layer="128.00" shape="400,1100 500,1100 500,1200 400,1200"/>
<poly id="poly_108" color="255,0,0,100" fill="1" layer="128.00" shape="400,1200 500,1200 500,1300 400,1300"/>
<poly id="poly_109" color="255,0,0,100" fill="1" layer="128.00" shape="400,1300 500,1300 500,1400 400,1400"/>
<poly id="poly_110" color="255,0,0,100" fill="1" layer="128.00" shape="400,1400 500,1400 500,1500 400,1500"/>
<poly id="poly_111" color="255,0,0,100" fill="1" layer="128.00" shape="400,1500 500,1500 500,1600 400,1600"/>
<poly id="poly_112" color="255,0,0,100" fill="1" layer="128.00" shape="400,1600 500,1600 500,1700 400,1700"/>
<poly id="poly_113" color="255,0,0,100" fill="1" layer="128.00" shape="400,1700 500,1700 500,1800 400,1800"/>
<poly id="poly_114" color="255,0,0,100" fill="1" layer="128.00" shape="400,1800 500,1800 500,1900 400,1900"/>
<poly id="poly_115" color="255,0,0,100" fill="1" layer="128.00" shape="400,1900 500,1900 500,2000 400,2000"/>
<poly id="poly_116" color="255,0,0,100" fill="1" layer="128.00" shape="400,2000 500,2000 500,2100 400,2100"/>
<poly id="poly_117" color="255,0,0,100" fill="1" layer="128.00" shape="400,2100 500,2100 500,2200 400,2200"/>
<poly id="poly_118" color="255,0,0,100" fill="1" layer="128.00" shape="400,2200 500,2200 500,2300 400,2300"/>
<poly id="poly_119" color="255,0,0,100" fill="1" layer="128.00" shape="400,2300 500,2300 500,2400 400,2400"/>
<poly id="poly_120" color="255,0,0,100" fill="1" layer="128.00" shape="500,0 600,0 600,100 500,100"/>
<poly id="poly_121" color="255,0,0,100" fill="1" layer="128.00" shape="500,100 600,100 600,200 500,200"/>
<poly id="poly_122" color="255,0,0,100" fill="1" layer="128.00" shape="500,200 600,200 600,300 500,300"/>
<poly id="poly_123" color="255,0,0,100" fill="1" layer="128.00" shape="500,300 600,300 600,400 500,400"/>
<poly id="poly_124" color="255,0,0,100" fill="1" layer="128.00" shape="500,400 600,400 600,500 500,500"/>
<poly id="poly_125" color="255,0,0,100" fill="1" layer="128.00" shape="500,500 600,500 600,600 500,600"/>
<poly id="poly_126" color="255,0,0,100" fill="1" layer="128.00" shape="500,600 600,600 600,700 500,700"/>
<poly id="poly_127" color="255,0,0,100" fill="1" layer="128.00" shape="500,700 600,700 600,800 500,800"/>
<poly id="poly_128" color="255,0,0,100" fill="1" layer="128.00" shape="500,800 600,800 600,900 500,900"/>
<poly id="poly_129" color="255,0,0,100" fill="1" layer="128.00" shape="500,900 600,900 600,1000 500,1000"/>
<poly id="poly_130" color="255,0,0,100" fill="1" layer="128.00" shape="500,1000 600,1000 600,1100 500,1100"/>
<poly id="poly_131" color="255,0,0,100" fill="1" layer="128.00" shape="500,1100 600,1100 600,1200 500,1200"/>
<poly id="poly_132" color="255,0,0,100" fill="1" layer="128.00" shape="500,1200 600,1200 600,1300 500,1300"/>
<poly id="poly_133" color="255,0,0,100" fill="1" layer="128.00" shape="500,1300 600,1300 600,1400 500,1400"/>
<poly id="poly_134" color="255,0,0,100" fill="1" layer="128.00" shape="500,1400 600,1400 600,1500 500,1500"/>
<poly id="poly_135" color="255,0,0,100" fill="1" layer="128.00" shape="500,1500 600,1500 600,1600 500,1600"/>
<poly id="poly_136" color="255,0,0,100" fill="1" layer="128.00" shape="500,1600 600,1600 600,1700 500,1700"/>
<poly id="poly_137" color="255,0,0,100" fill="1" layer="128.00" shape="500,1700 600,1700 600,1800 500,1800"/>
<poly id="poly_138" color="255,0,0,100" fill="1" layer="128.00" shape="500,1800 600,1800 600,1900 500,1900"/>
<poly id="poly_139" color="255,0,0,100" fill="1" layer="128.00" shape="500,1900 600,1900 600,2000 500,2000"/>
<poly id="poly_140" color="255,0,0,100" fill="1" layer="128.00" shape="500,2000 600,2000 600,2100 500,2100"/>
<poly id="poly_141" color="255,0,0,100" fill="1" layer="128.00" shape="500,2100 600,2100 600,2200 500,2200"/>
<poly id="poly_142" color="255,0,0,100" fill="1" layer="128.00" shape="500,2200 600,2200 600,2300 500,2300"/>
<poly id="poly_143" color="255,0,0,100" fill="1" layer="128.00" shape="500,2300 600,2300 600,2400 500,2400"/>
<poly id="poly_144" color="255,0,0,100" fill="1" layer="128.00" shape="600,0 700,0 700,100 600,100"/>
<poly id="poly_145" color="255,0,0,100" fill="1" layer="128.00" shape="600,100 700,100 700,200 600,200"/>
<poly id="poly_146" color="255,0,0,100" fill="1" layer="128.00" shape="600,200 700,200 700,300 600,300"/>
<poly id="poly_147" color="255,0,0,100" fill="1" layer="128.00" shape="600,300 700,300 700,400 600,400"/>
<poly id="poly_148" color="255,0,0,100" fill="1" layer="128.00" shape="600,400 700,400 700,500 600,500"/>
<poly id="poly_149" color="255,0,0,100" fill="1" layer="128.00" shape="600,500 700,500 700,600 600,600"/>
<poly id="poly_150" color="255,0,0,100" fill="1" layer="128.00" shape="600,600 700,600 700,700 600,700"/>
<poly id="poly_151" color="255,0,0,100" fill="1" layer="128.00" shape="600,700 700,700 700,800 600,800"/>
<poly id="poly_152" color="255,0,0,100" fill="1" layer="128.00" shape="600,800 700,800 700,900 600,900"/>
<poly id="poly_153" color="255,0,0,100" fill="1" layer="128.00" shape="600,900 700,900 700,1000 600,1000"/>
<poly id="poly_154" color="255,0,0,100" fill="1" layer="128.00" shape="600,1000 700,1000 700,1100 600,1100"/>
<poly id="poly_155" color="255,0,0,100" fill="1" layer="128.00" shape="600,1100 700,1100 700,1200 600,1200"/>
<poly id="poly_156" color="255,0,0,100" fill="1" layer="128.00" shape="600,1200 700,1200 700,1300 600,1300"/>
<poly id="poly_157" color="255,0,0,100" fill="1" layer="128.00" shape="600,1300 700,1300 700,1400 600,1400"/>
<poly id="poly_158" color="255,0,0,100" fill="1" layer="128.00" shape="600,1400 700,1400 700,1500 600,1500"/>
<poly id="poly_159" color="255,0,0,100" fill="1" layer="128.00" shape="600,1500 700,1500 700,1600 600,1600"/>
<poly id="poly_160" color="255,0,0,100" fill="1" layer="128.00" shape="600,1600 700,1600 700,1700 600,1700"/>
<poly id="poly_161" color="255,0,0,100" fill="1" layer="128.00" shape="600,1700 700,1700 700,1800 600,1800"/>
<poly id="poly_162" color="255,0,0,100" fill="1" layer="128.00" shape="600,1800 700,1800 700,1900 600,1900"/>
<poly id="poly_163" color="255,0,0,100" fill="1" layer="128.00" shape="600,1900 700,1900 700,2000 600,2000"/>
<poly id="poly_164" color="255,0,0,100" fill="1" layer="128.00" shape="600,2000 700,2000 700,2100 600,2100"/>
<poly id="poly_165" color="255,0,0,100" fill="1" layer="128.00" shape="600,2100 700,2100 700,2200 600,2200"/>
<poly id="poly_166" color="255,0,0,100" fill="1" layer="128.00" shape="600,2200 700,2200 700,2300 600,2300"/>
<poly id="poly_167" color="255,0,0,100" fill="1" layer="128.00" shape="600,2300 700,2300 700,2400 600,2400"/>
<poly id="poly_168" color="255,0,0,100" fill="1" layer="128.00" shape="700,0 800,0 800,100 700,100"/>
<poly id="poly_169" color="255,0,0,100" fill="1" layer="128.00" shape="700,100 800,100 800,200 700,200"/>
<poly id="poly_170" color="255,0,0,100" fill="1" layer="128.00" shape="700,200 800,200 800,300 700,300"/>
<poly id="poly_171" color="255,0,0,100" fill="1" layer="128.00" shape="700,300 800,300 800,400 700,400"/>
<poly id="poly_172" color="255,0,0,100" fill="1" layer="128.00" shape="700,400 800,400 800,500 700,500"/>
<poly id="poly_173" color="255,0,0,100" fill="1" layer="128.00" shape="700,500 800,500 800,600 700,600"/>
<poly id="poly_174" color="255,0,0,100" fill="1" layer="128.00" shape="700,600 800,600 800,700 700,700"/>
<poly id="poly_175" color="255,0,0,100" fill="1" layer="128.00" shape="700,700 800,700 800,800 700,800"/>
<poly id="poly_176" color="255,0,0,100" fill="1" layer="128.00" shape="700,800 800,800 800,900 700,900"/>
<poly id="poly_177" color="255,0,0,100" fill="1" layer="128.00" shape="700,900 800,900 800,1000 700,1000"/>
<poly id="poly_178" color="255,0,0,100" fill="1" layer="128.00" shape="700,1000 800,1000 800,1100 700,1100"/>
<poly id="poly_179" color="255,0,0,100" fill="1" layer="128.00" shape="700,1100 800,1100 800,1200 700,1200"/>
<poly id="poly_180" color="255,0,0,100" fill="1" layer="128.00" shape="700,1200 800,1200 800,1300 700,1300"/>
<poly id="poly_181" color="255,0,0,100" fill="1" layer="128.00" shape="700,1300 800,1300 800,1400 700,1400"/>
<poly id="poly_182" color="255,0,0,100" fill="1" layer="128.00" shape="700,1400 800,1400 800,1500 700,1500"/>
<poly id="poly_183" color="255,0,0,100" fill="1" layer="128.00" shape="700,1500 800,1500 800,1600 700,1600"/>
<poly id="poly_184" color="255,0,0,100" fill="1" layer="128.00" shape="700,1600 800,1600 800,1700 700,1700"/>
<poly id="poly_185" color="255,0,0,100" fill="1" layer="128.00" shape="700,1700 800,1700 800,1800 700,1800"/>
<poly id="poly_186" color="255,0,0,100" fill="1" layer="128.00" shape="700,1800 800,1800 800,1900 700,1900"/>
<poly id="poly_187" color="255,0,0,100" fill="1" layer="128.00" shape="700,1900 800,1900 800,2000 700,2000"/>
<poly id="poly_188" color="255,0,0,100" fill="1" layer="128.00" shape="700,2000 800,2000 800,2100 700,2100"/>
<poly id="poly_189" color="255,0,0,100" fill="1" layer="128.00" shape="700,2100 800,2100 800,2200 700,2200"/>
<poly id="poly_190" color="255,0,0,100" fill="1" layer="128.00" shape="700,2200 800,2200 800,2300 700,2300"/>
<poly id="poly_191" color="255,0,0,100" fill="1" layer="128.00" shape="700,2300 800,2300 800,2400 700,2400"/>
<poly id="poly_192" color="255,0,0,100" fill="1" layer="128.00" shape="800,0 900,0 900,100 800,100"/>
<poly id="poly_193" color="255,0,0,100" fill="1" layer="128.00" shape="800,100 900,100 900,200 800,200"/>
<poly id="poly_194" color="255,0,0,100" fill="1" layer="128.00" shape="800,200 900,200 900,300 800,300"/>
<poly id="poly_195" color="255,0,0,100" fill="1" layer="128.00" shape="800,300 900,300 900,400 800,400"/>
<poly id="poly_196" color="255,0,0,100" fill="1" layer="128.00" shape="800,400 900,400 900,500 800,500"/>
<poly id="poly_197" color="255,0,0,100" fill="1" layer="128.00" shape="800,500 900,500 900,600 800,600"/>
<poly id="poly_198" color="255,0,0,100" fill="1" layer="128.00" shape="800,600 900,600 900,700 800,700"/>
<poly id="poly_199" color="255,0,0,100" fill="1" layer="128.00" shape="800,700 900,700 900,800 800,800"/>
<poly id="poly_200" color="255,0,0,100" fill="1" layer="128.00" shape="800,800 900,800 900,900 800,900"/>
<poly id="poly_201" color="255,0,0,100" fill="1" layer="128.00" shape="800,900 900,900 900,1000 800,1000"/>
<poly id="poly_202" color="255,0,0,100" fill="1" layer="128.00" shape="800,1000 900,1000 900,1100 800,1100"/>
<poly id="poly_203" color="255,0,0,100" fill="1" layer="128.00" shape="800,1100 900,1100 900,1200 800,1200"/>
<poly id="poly_204" color="255,0,0,100" fill="1" layer="128.00" shape="800,1200 900,1200 900,1300 800,1300"/>
<poly id="poly_205" color="255,0,0,100" fill="1" layer="128.00" shape="800,1300 900,1300 900,1400 800,1400"/>
<poly id="poly_206" color="255,0,0,100" fill="1" layer="128.00" shape="800,1400 900,1400 900,1500 800,1500"/>
<poly id="poly_207" color="255,0,0,100" fill="1" layer="128.00" shape="800,1500 900,1500 900,1600 800,1600"/>
<poly id="poly_208" color="255,0,0,100" fill="1" layer="128.00" shape="800,1600 900,1600 900,1700 800,1700"/>
<poly id="poly_209" color="255,0,0,100" fill="1" layer="128.00" shape="800,1700 900,1700 900,1800 800,1800"/>
<poly id="poly_210" color="255,0,0,100" fill="1" layer="128.00" shape="800,1800 900,1800 900,1900 800,1900"/>
<poly id="poly_211" color="255,0,0,100" fill="1" layer="128.00" shape="800,1900 900,1900 900,2000 800,2000"/>
<poly id="poly_212" color="255,0,0,100" fill="1" layer="128.00" shape="800,2000 900,2000 900,2100 800,2100"/>
<poly id="poly_213" color="255,0,0,100" fill="1" layer="128.00" shape="800,2100 900,2100 900,2200 800,2200"/>
<poly id="poly_214" color="255,0,0,100" fill="1" layer="128.00" shape="800,2200 900,2200 900,2300 800,2300"/>
<poly id="poly_215" color="255,0,0,100" fill="1" layer="128.00" shape="800,2300 900,2300 900,2400 800,2400"/>
<poly id="poly_216" color="255,0,0,100" fill="1" layer="128.00" shape="900,0 1000,0 1000,100 900,100"/>
<poly id="poly_217" color="255,0,0,100" fill="1" layer="128.00" shape="900,100 1000,100 1000,200 900,200"/>
<poly id="poly_218" color="255,0,0,100" fill="1" layer="128.00" shape="900,200 1000,200 1000,300 900,300"/>
<poly id="poly_219" color="255,0,0,100" fill="1" layer="128.00" shape="900,300 1000,300 1000,400 900,400"/>
<poly id="poly_220" color="255,0,0,100" fill="1" layer="128.00" shape="900,400 1000,400 1000,500 900,500"/>
<poly id="poly_221" color="255,0,0,100" fill="1" layer="128.00" shape="900,500 1000,500 1000,600 900,600"/>
<poly id="poly_222" color="255,0,0,100" fill="1" layer="128.00" shape="900,600 1000,600 1000,700 900,700"/>
<poly id="poly_223" color="255,0,0,100" fill="1" layer="128.00" shape="900,700 1000,700 1000,800 900,800"/>
<poly id="poly_224" color="255,0,0,100" fill="1" layer="128.00" shape="900,800 1000,800 1000,900 900,900"/>
<poly id="poly_225" color="255,0,0,100" fill="1" layer="128.00" shape="900,900 1000,900 1000,1000 900,1000"/>
<poly id="poly_226" color="255,0,0,100" fill="1" layer="128.00" shape="900,1000 1000,1000 1000,1100 900,1100"/>
<poly id="poly_227" color="255,0,0,100" fill="1" layer="128.00" shape="900,1100 1000,1100 1000,1200 900,1200"/>
<poly id="poly_228" color="255,0,0,100" fill="1" layer="128.00" shape="900,1200 1000,1200 1000,1300 900,1300"/>
<poly id="poly_229" color="255,0,0,100" fill="1" layer="128.00" shape="900,1300 1000,1300 1000,1400 900,1400"/>
<poly id="poly_230" color="255,0,0,100" fill="1" layer="128.00" shape="900,1400 1000,1400 1000,1500 900,1500"/>
<poly id="poly_231" color="255,0,0,100" fill="1" layer="128.00" shape="900,1500 1000,1500 1000,1600 900,1600"/>
<poly id="poly_232" color="255,0,0,100" fill="1" layer="128.00" shape="900,1600 1000,1600 1000,1700 900,1700"/>
<poly id="poly_233" color="255,0,0,100" fill="1" layer="128.00" shape="900,1700 1000,1700 1000,1800 900,1800"/>
<poly id="poly_234" color="255,0,0,100" fill="1" layer="128.00" shape="900,1800 1000,1800 1000,1900 900,1900"/>
<poly id="poly_235" color="255,0,0,100" fill="1" layer="128.00" shape="900,1900 1000,1900 1000,2000 900,2000"/>
<poly id="poly_236" color="255,0,0,100" fill="1" layer="128.00" shape="900,2000 1000,2000 1000,2100 900,2100"/>
<poly id="poly_237" color="255,0,0,100" fill="1" layer="128.00" shape="900,2100 1000,2100 1000,2200 900,2200"/>
<poly id="poly_238" color="255,0,0,100" fill="1" layer="128.00" shape="900,2200 1000,2200 1000,2300 900,2300"/>
<poly id="poly_239" color="255,0,0,100" fill="1" layer="128.00" shape="900,2300 1000,2300 1000,2400 900,2400"/>
<poly id="poly_240" color="255,0,0,100" fill="1" layer="128.00" shape="1000,0 1100,0 1100,100 1000,100"/>
<poly id="poly_241" color="255,0,0,100" fill="1" layer="128.00" shape="1000,100 1100,100 1100,200 1000,200"/>
<poly id="poly_242" color="255,0,0,100" fill="1" layer="128.00" shape="1000,200 1100,200 1100,300 1000,300"/>
<poly id="poly_243" color="255,0,0,100" fill="1" layer="128.00" shape="1000,300 1100,300 1100,400 1000,400"/>
<poly id="poly_244" color="255,0,0,100" fill="1" layer="128.00" shape="1000,400 1100,400 1100,500 1000,500"/>
<poly id="poly_245" color="255,0,0,100" fill="1" layer="128.00" shape="1000,500 1100,500 1100,600 1000,600"/>
<poly id="poly_246" color="255,0,0,100" fill="1" layer="128.00" shape="1000,600 1100,600 1100,700 1000,700"/>
<poly id="poly_247" color="255,0,0,100" fill="1" layer="128.00" shape="1000,700 1100,700 1100,800 1000,800"/>
<poly id="poly_248" color="255,0,0,100" fill="1" layer="128.00" shape="1000,800 1100,800 1100,900 1000,900"/>
<poly id="poly_249" color="255,0,0,100" fill="1" layer="128.00" shape="1000,900 1100,900 1100,1000 1000,1000"/>
<poly id="poly_250" color="255,0,0,100" fill="1" layer="128.00" shape="1000,1000 1100,1000 1100,1100 1000,1100"/>
<poly id="poly_251" color="255,0,0,100" fill="1" layer="128.00" shape="1000,1100 1100,1100 1100,1200 1000,1200"/>
<poly id="poly_252" color="255,0,0,100" fill="1" layer="128.00" shape="1000,1200 1100,1200 1100,1300 1000,1300"/>
<poly id="poly_253" color="255,0,0,100" fill="1" layer="128.00" shape="1000,1300 1100,1300 1100,1400 1000,1400"/>
<poly id="poly_254" color="255,0,0,100" fill="1" layer="128.00" shape="1000,1400 1100,1400 1100,1500 1000,1500"/>
<poly id="poly_255" color="255,0,0,100" fill="1" layer="128.00" shape="1000,1500 1100,1500 1100,1600 1000,1600"/>
<poly id="poly_256" color="255,0,0,100" fill="1" layer="128.00" shape="1000,1600 1100,1600 1100,1700 1000,1700"/>
<poly id="poly_257" color="255,0,0,100" fill="1" layer="128.00" shape="1000,1700 1100,1700 1100,1800 1000,1800"/>
<poly id="poly_258" color="255,0,0,100" fill="1" layer="128.00" shape="1000,1800 1100,1800 1100,1900 1000,1900"/>
<poly id="poly_259" color="255,0,0,100" fill="1" layer="128.00" shape="1000,1900 1100,1900 1100,2000 1000,2000"/>
<poly id="poly_260" color="255,0,0,100" fill="1" layer="128.00" shape="1000,2000 1100,2000 1100,2100 1000,2100"/>
<poly id="poly_261" color="255,0,0,100" fill="1" layer="128.00" shape="1000,2100 1100,2100 1100,2200 1000,2200"/>
<poly id="poly_262" color="255,0,0,100" fill="1" layer="128.00" shape="1000,2200 1100,2200 1100,2300 1000,2300"/>
<poly id="poly_263" color="255,0,0,100" fill="1" layer="128.00" shape="1000,2300 1100,2300 1100,2400 1000,2400"/>
<poly id="poly_264" color="255,0,0,100" fill="1" layer="128.00" shape="1100,0 1200,0 1200,100 1100,100"/>
<poly id="poly_265" color="255,0,0,100" fill="1" layer="128.00" shape="1100,100 1200,100 1200,200 1100,200"/>
<poly id="poly_266" color="255,0,0,100" fill="1" layer="128.00" shape="1100,200 1200,200 1200,300 1100,300"/>
<poly id="poly_267" color="255,0,0,100" fill="1" layer="128.00" shape="1100,300 1200,300 1200,400 1100,400"/>
<poly id="poly_268" color="255,0,0,100" fill="1" layer="128.00" shape="1100,400 1200,400 1200,500 1100,500"/>
<poly id="poly_269" color="255,0,0,100" fill="1" layer="128.00" shape="1100,500 1200,500 1200,600 1100,600"/>
<poly id="poly_270" color="255,0,0,100" fill="1" layer="128.00" shape="1100,600 1200,600 1200,700 1100,700"/>
<poly id="poly_271" color="255,0,0,100" fill="1" layer="128.00" shape="1100,700 1200,700 1200,800 1100,800"/>
<poly id="poly_272" color="255,0,0,100" fill="1" layer="128.00" shape="1100,800 1200,800 1200,900 1100,900"/>
<poly id="poly_273" color="255,0,0,100" fill="1" layer="128.00" shape="1100,900 1200,900 1200,1000 1100,1000"/>
<poly id="poly_274" color="255,0,0,100" fill="1" layer="128.00" shape="1100,1000 1200,1000 1200,1100 1100,1100"/>
<poly id="poly_275" color="255,0,0,100" fill="1" layer="128.00" shape="1100,1100 1200,1100 1200,1200 1100,1200"/>