<?xml version="1.0" encoding="UTF-8"?>
<!-- generated on 2020-04-02 03:34:02.290673 by edgesInDistricts.py UNKNOWN
  options: -n simulations/main/osm.net.xml -t simulations/main/polys.add.xml -o simulations/main/districts.taz.xml
-->
<tazs xmlns:xsi="http://www.w3.org/2001/XMLSchema-instance" xsi:noNamespaceSchemaLocation="http://sumo.dlr.de/xsd/taz_file.xsd">
    <taz id="poly_1022" edges="-38507036#0 38507036#0"/>
    <taz id="poly_1023" edges="-27582314#0 -279160074#3 -38507036#0 -38507036#1 -8052280#1 27582314#0 279160074#0 38507036#0 38507036#1 8052280#0"/>
    <taz id="poly_1024" edges="-17088607#4 -279160074#3 -8052280#1 -8052280#2 -8052280#3 -8169500#2 17088607#0 279160074#0 8052280#0 8052280#2 8052280#3 8169500#0"/>
    <taz id="poly_1025" edges="-17088607#4 -19803279#10 -23361912#1 -279160074#3 -615968895 -8052277#5 17088607#0 19803279#9 23361912#0 279160074#0 615968895"/>
    <taz id="poly_1026" edges="-19803279#10 -19803279#4 -19803279#8 -24005739#1 -34858030#5 -8170555#0 19803279#5 19803279#9 34858030#0 590328267#0"/>
    <taz id="poly_1027" edges="-23361910#3 -24005739#1 -34858030#5 -8052270 -8052271#8 34858030#0 8052270 8052271#4"/>
    <taz id="poly_1028" edges="-15259691#6 -15259691#7 -15259691#8 -17202601#2 -22927128#10 -22927128#8 -24005730#1 -5045371#3 -5045371#4 -5045371#6 -8052270 -8052271#3 -8052271#8 15259691#6 15259691#7 15259691#8 17202601#0 22927128#2 24005730#0 5045371#0 5045371#4 5045371#5 8052270 8052271#0 8052271#4"/>
    <taz id="poly_1029" edges="-15259691#4 -15259691#5 -15259691#6 -17202600#1 -17202601#2 -22927128#8 15259691#4 15259691#5 15259691#6 17202600#0 17202601#0 22927128#2"/>
    <taz id="poly_1030" edges="-15259691#3 -15259691#4 -17202600#1 -22764722 -22927127#0 15259691#2 15259691#4 17202600#0 22764722 22927126#8"/>
    <taz id="poly_1031" edges="-10275939#10 -17201033 -22927126#7 -22927127#0 -346941212#3 17201033 191676961 22764722 22927126#7 22927126#8 328061955 346941212#0"/>
    <taz id="poly_1032" edges="-10275938 -10275939#10 -10275939#5 -9549963#5 -9549963#6 10275938 10275939#5 10275939#6 9549963#4 9549963#6"/>
    <taz id="poly_1033" edges="-10157525#4 -10275932#0 -10275932#1 -10275932#2 -10275938 -10275939#0 -10275939#2 -10275939#4 -10275939#5 10157525#3 10275932#0 10275932#1 10275932#2 10275938 10275939#0 10275939#1 10275939#3 10275939#5"/>
    <taz id="poly_1034" edges="-93264031#5 93264031#0"/>
    <taz id="poly_1035" edges="-22423482#3 -22423482#4 -93264031#5 22423482#0 22423482#4 93264031#0"/>
    <taz id="poly_1036" edges="-23175318#1 -32675981#2 23175318#0 249472455 32675981#0 4984269 717944160#1 717944162 717955843 717955847#0 733747317"/>
    <taz id="poly_1037" edges="-10589802#0 -16193006#2 -32675981#2 -5049329#13 -9397388#0 10589802#1 249472455 5049329#0 5155865 612083214 717944161 727900570 9397385 9397388#0"/>
    <taz id="poly_1038" edges="-16193006#2 -34927632#1 -42691780#1 -9546287#1 37696603#0 5155865 55379624#0 9546287#0"/>
    <taz id="poly_1039" edges="-34927632#1 -5089895#12 -5154838#2 -55606031#7 -8067687#7 5089895#8 5154838#0 55379624#0 55606031#0 8067687#0"/>
    <taz id="poly_1040" edges="-5089895#12 -5089895#7 -5154837#3 -5154838#2 -8067687#7 5089895#3 5089895#8 5154837#0 5154838#0 8067687#0 8067688#0 8067688#2"/>
    <taz id="poly_1041" edges="-114102313#7 -22649600 -445377393#1 -4973735#5 -4973735#7 -4973735#9 -5089895#1 -5089895#2 -5089895#7 -5215886#5 -564368924#0 -9098904#2 -9098904#9 -9098907#0 -9098907#1 -9098907#2 114102313#6 22649600 445377393#0 4973735#10 4973735#5 4973735#6 4973735#8 5089895#0 5089895#2 5089895#3 5215886#4 564368924#0 9098904#0 9098904#3 9098907#0 9098907#1 9098907#2"/>
    <taz id="poly_1042" edges="-11005769#5 -114102313#0 -114102313#3 -114102313#5 -114102313#7 -4973735#11 -505081694#1 -5154832#17 -5215886#5 -9098002#3 11005769#2 114102313#0 114102313#1 114102313#4 114102313#6 233263401#0 4973735#10 5049399#0 505081694#0 5154832#15 5215886#4 9098002#0 98476003#0"/>
    <taz id="poly_1043" edges="-22773270#12 -9098002#3 -9098002#6 22773270#0 9098002#0 9098002#5 98476003#0"/>
    <taz id="poly_1046" edges="-10244352#1 -10244352#3 -126153195 -126153197#0 -126153197#1 -201342525#5 -201342525#8 -6010059#6 -6185644 -9097917#1 -9097917#2 10244352#0 10244352#2 126153195 126153197#0 126153197#1 201342525#5 201342525#6 228084249#0 228084249#1 23609869#2 389279943 389279944#0 6010059#5 6185644 6185650#0 6185650#4 9071265 9097917#0 9097917#2"/>
    <taz id="poly_1047" edges="-201342525#1 -201342525#4 -201342525#5 -302507409#7 -4973730#1 -4976154#2 201342525#0 201342525#2 201342525#5 21063788#0 21063788#3 302507409#0 328061951#3 4973730#0 4976154#0 6005462 6185650#0 6185651#0"/>
    <taz id="poly_1048" edges="-14680546#1 -164481041 -23011073#0 -23011074 -4976154#3 14680546#0 21063788#3 23011073#1 238902679#0 238902679#3 4976154#3 5049375#0 5049376#1 6010056#0 75429312#1"/>
    <taz id="poly_1049" edges="-164481041 -23011074 -5049374#6 -515073666#1 23011073#1 5049374#2 5049375#0 515073666#0"/>
    <taz id="poly_1050" edges="-308284427#2 -4984534 308284427#0 328241502 37524435 4983969#0 561770405#1 561770407#0 561770410 682854380 717944152 737126620 80865280#0"/>
    <taz id="poly_1051" edges="-104019098#2 -104019098#3 -20667431#1 104019098#2 104019098#3 18792873#0 20667431#0"/>
    <taz id="poly_1082" edges="-61775210#2 -74389017 61775210#0 74389017"/>
    <taz id="poly_1083" edges="-27582314#1 -279160074#3 -38507036#1 -61775210#2 -74389017 27582314#1 279160074#0 38507036#1 61775210#0 74389017"/>
    <taz id="poly_1084" edges="-17088607#4 -8170555#2 17088607#0 8170555#1"/>
    <taz id="poly_1085" edges="-23361911#2 -23361912#1 -23361912#3 -34858031#1 -8093836#1 -8093836#4 -8170555#0 -8170555#2 23361911#1 23361912#0 23361912#2 23361912#4 34858031#0 590328267#0 8093836#2 8170555#1"/>
    <taz id="poly_1086" edges="-23361910#3 -23361911#2 -24005739#1 -34858031#1 -8093836#1 23361911#1 34858031#0"/>
    <taz id="poly_1087" edges="-23361910#3 -23361911#0 -24005739#1 -24005739#3 -5045371#6 -5045371#8 -8052270 23361911#0 24005739#2 5045371#5 5045371#7 8052270"/>
    <taz id="poly_1088" edges="-24005726#4 -24005726#6 -24005729 -24005730#1 -24037794#3 -5045371#6 24005726#1 24005726#5 24005729 24005730#0 24037794#0 5045371#5"/>
    <taz id="poly_1089" edges="-17202600#1 -17202601#2 -24005726#0 -24005726#4 -24005726#6 -24005738#2 17202600#0 17202601#0 24005726#0 24005726#1 24005726#5 24005738#0"/>
    <taz id="poly_1090" edges="-14331140#3 -14331141#0 -14331141#1 -14331141#4 -15259691#0 -15259691#1 -15259691#3 -17202600#1 -22927127#0 -24005726#0 14331140#0 14331141#0 14331141#1 14331141#2 15259691#0 15259691#1 15259691#2 17201033 17202600#0 22927126#8 24005726#0"/>
    <taz id="poly_1091" edges="-15259691#0 -17201033 -22927126#6 -22927126#7 -5045369#16 -5045369#17 15259691#0 191676961 22927126#2 22927126#7 328061955 5045369#17 5045369#6"/>
    <taz id="poly_1092" edges="-10275933 -17200073#1 -22927126#1 -22927126#6 -346941212#3 -9549062#6 -9549963#6 10275933 17200073#0 191676961 22927126#0 22927126#2 328061955 346941212#0 9549062#0 9549963#6"/>
    <taz id="poly_1093" edges="-10157525#4 -10275939#0 -9549062#6 -9549963#7 10157525#3 10275939#0 9549062#0 9549963#7"/>
    <taz id="poly_1094" edges="-10157525#1 -10157525#2 -10157525#4 -93264031#5 -93264031#7 -9549060#6 -9549065#4 10157525#1 10157525#2 10157525#3 93264031#0 93264031#6 9549060#6 9549065#4"/>
    <taz id="poly_1095" edges="-10157525#0 -10157525#1 -13857259#2 -22423482#3 -23175318#1 -9549060#3 -9549060#4 -9549060#5 10157525#0 10157525#1 13854233 22423482#0 23175318#0 9549060#0 9549060#4 9549060#5"/>
    <taz id="poly_1096" edges="-19227534#1 -19227534#2 -19227535#0 -19227535#1 -19227536 -23175318#1 -32675981#2 -9549060#3 19227534#0 19227534#2 19227535#0 19227535#1 19227536 23175318#0 32675981#0 32675981#5 9549060#0"/>
    <taz id="poly_1097" edges="-10589802#0 -110606732#1 -24585946#11 -24585946#6 -32675980#0 -51564472 -9397387#3 -9397387#5 -9397387#9 -9397388#0 10589802#1 110606732#0 24585946#0 24585946#7 51564472 9397385 9397386 9397387#0 9397387#4 9397387#7 9397388#0"/>
    <taz id="poly_1098" edges="-55606031#8 -9397387#9 -9397388#0 -9397388#2 -9397388#3 -9397388#6 -9397389#5 -9546287#1 55606031#8 9397387#7 9397388#0 9397388#1 9397388#3 9397388#4 9397389#0 9546287#0"/>
    <taz id="poly_1099" edges="-158677561 -33303593#1 -5215972#1 -5215972#3 -5215972#4 -55606031#7 -55606031#8 -9098910#2 -9098910#4 -9397388#6 158677561 33303593#0 5215972#3 5215972#4 55606031#0 55606031#8 9098910#0 9098910#4 9397388#4"/>
    <taz id="poly_1100" edges="-5154838#3 -5154838#4 -9098907#3 -9098909#3 -9098910#2 -9098914#1 5154838#3 5154838#4 9098907#3 9098909#2 9098910#0 9098912 9098914#0"/>
    <taz id="poly_1101" edges="-13060483 -5154837#3 -5154837#6 -5154838#4 -5154838#6 -564368924#1 -9098904#9 -9098907#2 -9098907#3 -9098909#1 13060483 22649600 5154837#0 5154837#4 5154838#4 5154838#5 564368924#1 9098904#3 9098907#2 9098907#3 9098909#0 9098909#2"/>
    <taz id="poly_1102" edges="-13060485#2 -13060485#3 -22649600 -4973735#11 -4973735#13 -505081694#1 -5154837#7 -532902343#0 -532902343#3 -564368924#1 -9098904#10 -9098904#9 13060485#2 13060485#3 22649600 4973735#10 4973735#12 5049399#0 505081694#0 5154837#7 532902343#0 532902343#1 564368924#1 9098904#10 9098904#3"/>
    <taz id="poly_1103" edges="-133759231 -4973733#7 -4973735#13 -4973735#14 -4973735#15 -4998649#1 -4998649#2 -5154833#1 -532902343#3 -9098002#6 -9546288#1 133759231 284106649#0 4973733#4 4973735#12 4973735#14 4973735#15 4998649#0 4998649#2 5049399#0 5154833#0 532902343#1 9098002#5 9546288#0 9546292#1"/>
    <taz id="poly_1104" edges="-10273977#1 -10273977#2 -4973733#2 -4973733#3 -4973733#7 -5154961#1 -5154963 -5215935 10273977#0 10273977#2 4973733#0 4973733#3 4973733#4 5154961#0 5154963 5215935"/>
    <taz id="poly_1105" edges="-4973733#2 -4982770#1 -4982770#2 -564368917#3 -6010059#4 -6010059#6 -8067684#5 4973733#0 4982770#0 4982770#2 564368917#0 6010059#0 6010059#5 6052188#0"/>
    <taz id="poly_1106" edges="-10244352#3 -389279952#0 -389279952#2 -389279952#4 -4982770#2 -4982770#7 -4991700#2 -5559180#2 -5559180#5 -5559180#7 -564368917#3 -6005456 10132866#0 10244352#2 389279952#0 389279952#1 389279952#3 4982770#2 4982770#3 4982855#0 4982855#1 4991700#0 5559180#2 5559180#3 5559180#6 564368917#0 6005456 6052188#0 6185645#0"/>
    <taz id="poly_1107" edges="-4998651 -5559180#1 -5559180#2 -6010057 -6185648 10321063 10321064#1 10321064#2 4998651 5559180#0 5559180#2 6010057 6185645#0 6185647#0 6185648 6185649 6185652"/>
    <taz id="poly_1108" edges="-4976154#3 -4976154#4 -4976154#5 -5049366#1 -6185663#0 -6185663#2 -6186132 10321064#0 10321064#1 238086623 238902679#0 290003280 35740406 4976154#3 4976154#4 4976154#5 5049364 5049366#0 6010056#0 6185649 6185652 6185654 6185663#0 6185663#1 6186132 75429312#1"/>
    <taz id="poly_1109" edges="-164481037#1 -164481041 -238902657#2 -238902685#1 -243705727#1 -249470002 -261557749 -302507410 -4976154#5 224779953#1 238086623 238902657#0 238902665 238902679#0 238902682 238902685#0 238902693#0 243705727#0 249469998 249470002 261557749 290003279 290003280 302507411 30677574 318656085 318656086 4976154#5 4984745 5004452#0 5004452#1 5004452#2 5049374#7 5049375#0 539308469 561770406 717944151 717944153 717944154 717955855 717955856 75429312#1"/>
    <taz id="poly_1110" edges="-23187518#6 -23554603#1 -308284426#1 -308284427#2 176386132 18792867#0 18792867#1 18792867#2 18792873#0 23187518#0 233981122 23554603#0 238086623 238086628 249470011 290003279 30677574 308284426#0 308284427#0 308284429#1 561770403 561770404 561770406 561770418 561770419 561770421#0 561770422#0 561770423 561770424 60660263 682854381 682854404 737126634 753904750#0 86166122"/>
    <taz id="poly_1111" edges="-104019098#1 -104019098#2 -18792860 -18792861 -20667431#1 -60674032 -60674033#1 -753904750#2 104019098#0 104019098#2 18792860 18792861 18792862#0 18792866#0 18792866#1 18792866#2 18792866#3 18792866#4 20667431#0 60674032 60674033#0 753904750#0 753904751#0"/>
    <taz id="poly_1112" edges="-104019098#1 104019098#0"/>
    <taz id="poly_1141" edges="-61775210#2 61775210#0"/>
    <taz id="poly_1142" edges="-17089236#1 -61775210#2 17089236#0 61775210#0"/>
    <taz id="poly_1143" edges="-17089236#1 17089236#0"/>
    <taz id="poly_1144" edges="-17088607#4 -8170555#2 -8170555#4 17088607#0 8170555#1 8170555#3"/>
    <taz id="poly_1145" edges="-24005740#1 -8093836#4 -8093836#6 24005740#0 8093836#2 8093836#5"/>
    <taz id="poly_1146" edges="-17272720#1 -23352944#2 -24005739#3 -24005739#5 17272720#0 23352944#0 24005739#2 24005739#4"/>
    <taz id="poly_1147" edges="-23352944#2 23352944#0 24037794#4"/>
    <taz id="poly_1148" edges="-24005726#6 -24037793 -24037794#3 -24037794#4 -24037794#8 24005726#5 24037793 24037794#0 24037794#4 24037794#5"/>
    <taz id="poly_1149" edges="-14331141#4 -14331144#5 -24005726#6 -24005738#2 -24037794#8 14331141#2 14331144#0 24005726#5 24005738#0 24037794#5"/>
    <taz id="poly_1150" edges="-14331140#3 -14331141#4 -14331144#5 14331140#0 14331141#2 14331144#0"/>
    <taz id="poly_1151" edges="-17200073#1 -5045369#16 17200073#0 5045369#6"/>
    <taz id="poly_1152" edges="-17200073#1 -17200074 -17200080#2 -22927124 -22927125#2 -22927126#1 17200073#0 17200074 17200080#0 191676961 191676961-AddedOnRampEdge 22927124 22927125#1 22927126#0"/>
    <taz id="poly_1153" edges="-6444938#3 -9549060#11 -9549062#6 191676961-AddedOnRampEdge 191676963 191676965 23171224#0 23171224#1 29314703#0 29314703#1 328061955 5079562#0 5079563#0 6444938#1 733747313 9549060#7 9549062#0"/>
    <taz id="poly_1154" edges="-8602359#3 -9549060#11 -9549060#6 -9549963#7 23171224#1 29314703#0 697301985#1 697301986#0 8602359#1 9549060#6 9549060#7 9549963#7"/>
    <taz id="poly_1155" edges="-13857259#2 -23175318#1 -8602359#3 -8602359#4 -8602359#6 -8602360#6 -8602361#8 -9549065#3 -9549065#4 13854233 23175318#0 697301985#0 697301985#1 697301986#0 697301986#1 8602359#1 8602359#4 8602359#5 8602360#0 8602361#0 9549065#1 9549065#4"/>
    <taz id="poly_1156" edges="-8602360#6 -8602361#8 32675981#5 8602360#0 8602361#0"/>
    <taz id="poly_1157" edges="-24585946#6 -32675980#0 -8602361#8 -9397389#5 -9397665#10 -9397665#3 -9397665#5 24585946#0 32675981#5 8602361#0 9397389#0 9397665#0 9397665#4 9397665#6"/>
    <taz id="poly_1158" edges="-5215968#1 -55606031#11 -55606031#8 -55606032#3 -8067335#1 -8067335#2 -9397389#5 -9397665#3 -9397901#2 5215968#0 55606031#8 55606031#9 55606032#1 8067335#0 8067335#2 9397389#0 9397665#0 9397901#0"/>
    <taz id="poly_1159" edges="-33303593#1 -5045373#0 -5045373#1 -5049335#0 -5215972#1 -55606033#0 -55606033#2 -9098914#2 -9098914#3 33303593#0 5045373#0 5045373#1 5049335#0 5215972#1 5215972#4 55606033#0 55606033#1 9098914#2 9098914#3"/>
    <taz id="poly_1160" edges="-5045373#1 -5045373#2 -5045373#4 -5045373#6 -5215972#4 -5215972#5 -5215972#6 -5215972#8 -8051692#1 -8051692#2 -8053524#0 -8053524#1 -9098909#3 -9098914#1 -9098914#2 -9925122 5045373#1 5045373#2 5045373#3 5215972#4 5215972#5 5215972#6 5215972#7 8051692#0 8051692#2 8053524#0 8053524#1 9098909#2 9098914#0 9098914#2 9925122"/>
    <taz id="poly_1161" edges="-114102318#1 -13060483 -32887255 -5154838#6 -5154838#8 -5215972#10 -5215972#11 -8051691#0 -9098909#1 -9098909#3 -9925123#0 -9925123#1 -9925124#0 13060483 32887255 5154838#5 5154838#7 5215972#11 5215972#12 5215972#9 8051691#0 9098909#0 9098909#2 9925122 9925123#0 9925123#1 9925124#0"/>
    <taz id="poly_1162" edges="-284106647 -284108893 -5154837#7 -5154838#8 -5215970#0 -532902343#0 -532902344#1 -9546291#1 -9925123#1 -9925123#2 -9925124#0 -9925124#1 -9925124#3 284106647 284108893 5154836#0 5154836#1 5154837#7 5154838#7 5215970#0 532902343#0 532902344#0 9546291#1 9925123#1 9925123#2 9925124#0 9925124#1 9925124#2"/>
    <taz id="poly_1163" edges="-4998649#2 -4998649#3 -5154963 -532902344#1 -532902344#2 -8067685#0 -9546288#1 -9546291#0 -9925126#1 4998649#2 4998649#3 5154963 532902344#0 532902344#2 8067685#0 9546288#0 9546290 9546291#0 9546292#0 9546292#1 9925126#0"/>
    <taz id="poly_1164" edges="-10273977#2 -10273977#4 -10571961 -10571962#1 -125306965 -4998649#3 -5154965#1 -532902344#3 -9925126#1 10273977#2 10273977#3 10274577#0 10571961 10571962#0 125306965 4998649#3 5154965#0 532902344#3 9925126#0"/>
    <taz id="poly_1165" edges="-10273977#4 -125306965 -5154967#0 -8067684#5 125306965 5154966#0 8067684#1"/>
    <taz id="poly_1166" edges="-10321066#4 -4982770#7 -5154967#0 -5559180#7 -6005456 10321066#0 4982770#3 5154966#0 5559180#6 6005456"/>
    <taz id="poly_1167" edges="-4982770#7 -5049361#0 -6185663#2 -8067672#9 10321063 4982770#3 4982855#0 5049361#0 6185647#0 6185659#0 6185663#1 648888031 8067672#0"/>
    <taz id="poly_1168" edges="-10270718#1 -261557749 -302507405#1 -5049361#0 -5049361#3 -5049363 -5049366#1 -6185663#2 10270718#0 238086623 261557749 290003278 290003280 302507405#0 35740406 5049361#0 5049361#1 5049363 5049366#0 6185663#1 648888031 682854403"/>
    <taz id="poly_1169" edges="-16230975#3 -16230975#5 -23558941 -238902685#1 -302507410 -5049363 -75313321#1 -8067670 16230975#3 16230975#4 23558941 238902685#0 302507411 5049363 718188324 8067670"/>
    <taz id="poly_1170" edges="-16230972#1 -16230975#2 -16230975#3 -16230976 -18832138#1 -224779952 -224779953#0 -23187518#6 -23554603#1 -5049338#1 -5049338#3 -5049338#4 -8067669#0 -8067669#3 -8067669#4 -8067670 16230972#0 16230975#0 16230975#3 16230976 164481039 18832138#0 224779953#0 224779953#1 23187518#0 23554603#0 238902693#0 5049338#2 5049338#4 8067669#0 8067669#1 8067669#4 8067670"/>
    <taz id="poly_1171" edges="-16230970#2 -23187518#6 -5049338#0 -5049338#1 -60674033#1 23187518#0 5049338#0 5049338#1 60674033#0"/>
    <taz id="poly_1172" edges="-60674033#1 60674033#0"/>
    <taz id="poly_1201" edges="-61775210#2 61775210#0"/>
    <taz id="poly_1203" edges="-17089236#1 -17089236#3 -17272593 -24005744#2 17089236#0 17089236#2 17272593 24005744#0"/>
    <taz id="poly_1204" edges="-17088606#7 -17089236#3 -23361804 -24005744#2 -8093836#6 -8170555#4 -8170555#5 -8170555#6 -8170555#7 17088606#3 17089236#2 23361804 24005744#0 8093836#5 8170555#3 8170555#5 8170555#6 8170555#7"/>
    <taz id="poly_1205" edges="-17088606#0 -17088606#1 -17088606#2 -17088606#7 -23361787#1 -23361805#1 -24005740#1 17088606#0 17088606#1 17088606#2 17088606#3 23361787#0 23361805#0 24005740#0"/>
    <taz id="poly_1206" edges="-135177380#2 -14331145#3 -17088606#0 -17272596#4 -17272720#1 -23352944#2 -23352945 -24005739#5 -4981997#5 135177380#0 14331145#0 17088606#0 17272596#2 17272720#0 23352944#0 23352945 24005739#4 4981997#4"/>
    <taz id="poly_1207" edges="-17272596#1 -17272596#4 -4981997#5 17272596#2 4981997#4"/>
    <taz id="poly_1208" edges="-17272596#1 -24037794#8 -24572961#1 -4981997#3 -98671799 14331142#1 17272596#0 24037794#5 24572961#0 4981997#3"/>
    <taz id="poly_1209" edges="-14331141#12 -14331141#4 -14331141#6 -14331141#8 -14331142#0 -14331144#5 -4981997#2 -4981997#3 -98671799 14331141#2 14331141#5 14331141#7 14331141#9 14331142#0 14331142#1 14331144#0 24037794#5 4981997#2 4981997#3"/>
    <taz id="poly_1210" edges="-14331140#3 -14331144#5 -14331147#3 -4981997#0 -4981997#1 -4981997#2 14331140#0 14331144#0 14331147#0 4981997#0 4981997#1 4981997#2"/>
    <taz id="poly_1211" edges="-14331139#2 -14331139#3 -14331139#4 -17200077#10 -17200080#2 -17200084#1 -5045369#16 -5045369#4 -5045369#5 14331139#0 14331139#3 14331139#4 17200077#0 17200080#0 17200084#0 5045369#4 5045369#5 5045369#6"/>
    <taz id="poly_1212" edges="-17200076#1 -17200077#10 -17200080#2 -22927125#2 -22927125#4 -22927134 -4981996#4 -500102114 -5045369#4 17200076#0 17200077#0 17200080#0 17200081 17200084#0 22927125#1 22927125#3 22927134 4981996#4 5045369#4"/>
    <taz id="poly_1213" edges="-15455692#6 -22927123 -22927124 -22927125#4 -22927134 -500102107 -500102114 -6444923#3 -6444938#3 15455692#0 17200081 191676958 191676963 191676964 191676965 191839025 22927123 22927124 22927125#3 22927134 23171224#0 279160076 279160077 345694163 369250543 500102107 5079562#0 5079564#0 5079565#0 616116728 6444923#0 6444938#1 733747312 733747318"/>
    <taz id="poly_1214" edges="-6444938#3 6444938#1"/>
    <taz id="poly_1215" edges="-5077119#2 -5077119#6 -5787612#0 -8602359#6 -8602359#7 -8602363#3 -8602363#5 -8602364 5077119#0 5077119#3 5787612#0 8602359#5 8602359#7 8602363#0 8602363#4 8602364"/>
    <taz id="poly_1216" edges="-5077119#6 -8602360#12 -8602360#6 -8602360#8 -8602361#10 -8602363#3 5077119#3 8602360#0 8602360#7 8602360#9 8602361#10 8602363#0"/>
    <taz id="poly_1217" edges="-32675980#0 -32675980#4 -8602361#10 -8602361#8 -8602362#3 -9397901#2 -9930562#2 -9930563#1 32675980#1 32675981#5 8602361#0 8602361#10 8602362#1 9397901#0 9930562#0 9930563#0"/>
    <taz id="poly_1218" edges="-32675980#4 -8067335#2 -9397901#2 -9930562#3 32675980#1 8067335#2 9397901#0 9930562#3"/>
    <taz id="poly_1219" edges="-5049335#0 -5049335#1 -55606032#3 -55606033#2 -55606033#3 -8051692#3 -8051692#5 -8053524#1 -9099361 -95323920#2 5049335#0 5049335#1 55606032#1 55606033#1 55606033#3 8051692#3 8051692#5 8053524#1 9099361 95323920#0"/>
    <taz id="poly_1220" edges="-5045373#6 -55606033#3 -55606033#4 -55606033#6 -8051691#2 -8051691#3 -8051692#2 -8051692#3 -95323920#2 5045373#5 55606033#3 55606033#4 55606033#5 8051691#2 8051691#3 8051692#2 8051692#3 95323920#0"/>
    <taz id="poly_1221" edges="-20575849 -5045373#6 -5045373#7 -55606033#6 -609127521 -8051689#2 -8051691#1 -8051691#2 20575849 5045373#5 5045373#7 55606033#5 609127514 609127521 8051689#1 8051691#1 8051691#2"/>
    <taz id="poly_1222" edges="-114102318#1 -114102321#3 -114102321#4 -22649586#2 -5215970#0 -5215970#1 -8051689#0 -8667717#0 -8667717#2 114102321#0 114102321#4 22649586#0 5215970#0 5215970#1 5215972#12 8051689#0 8667717#0 8667717#1"/>
    <taz id="poly_1223" edges="-5215970#1 -5215970#3 -8034297#2 -8067685#0 -8067685#4 -8667717#0 -9925124#3 5215970#1 5215970#3 8034297#0 8067685#0 8067685#1 8667717#0 9925124#2"/>
    <taz id="poly_1224" edges="-5154965#1 -5154965#2 -8067685#4 10274577#0 320772147 5154965#0 5154965#2 5155829#0 5215936#3 8067685#1"/>
    <taz id="poly_1225" edges="-10273974#1 -10273974#3 -10273977#6 -10273977#9 -23860613#1 -23860613#2 -26129318 -5154965#2 -5154965#3 -5154965#4 10273974#0 10273974#2 10273977#3 10273977#5 10273977#7 23860613#0 23860613#2 26129318 5154965#2 5154965#3 5154965#4 5154966#0 5155829#0 5155829#3"/>
    <taz id="poly_1226" edges="-10273974#3 -10273977#9 -10366834#2 -23197702 -5154965#4 -5154965#5 -5154965#7 -5154967#3 -8067678#3 -9649384 10273974#2 10273977#7 10366834#1 23197702 5154965#4 5154965#5 5154965#6 5154967#1 8067678#0 9649384"/>
    <taz id="poly_1227" edges="-190309448#0 -190309448#1 -190309448#4 -23197702 -4982770#9 -5154968#4 -5154968#5 -8067673#1 -8067674#4 -8067678#3 190309448#0 190309448#1 190309448#2 23197702 290003278 4982770#8 5154968#0 5154968#5 682854403 8067673#0 8067674#0 8067678#0"/>
    <taz id="poly_1228" edges="-10270718#1 -10270718#2 -389279953 -5049361#3 -5049361#5 -8067673#1 -8067674#4 -8067679#4 -8067681 10270718#0 10270718#2 5049361#1 5049361#4 5049361#6 8067673#0 8067674#0 8067679#0 8067681"/>
    <taz id="poly_1229" edges="-102471928#1 -10270718#2 -126053055#2 -23558941 -303204628 -4983967#3 -75313321#1 -8067680#1 -8067680#2 -8067681 -8067683 102471928#1 10270718#2 126053055#0 23558941 303204628 4983967#0 718188324 8067680#0 8067680#2 8067681 8067683"/>
    <taz id="poly_123" edges="-22899284#0 -22899284#1 22899284#0 22899284#1"/>
    <taz id="poly_1230" edges="-102471928#0 -102471928#1 -16230969#0 -16230969#1 -16230970#2 -16230976 -18832138#1 -18832139#1 -19532809#2 -19532810#2 -4983967#3 -4983967#6 -8067664#2 -8067665#1 -8067669#0 102471928#0 102471928#1 16230969#0 16230969#1 16230970#0 16230976 18832138#0 18832139#0 19532809#0 19532810#0 4983967#0 4983967#4 8067664#0 8067664#3 8067669#0 8908467#0 8908467#1 8908467#3"/>
    <taz id="poly_1231" edges="-16230969#1 -16230969#2 -16230970#2 -23187518#6 -438894185 -438894186#0 -438894186#1 -5049337#1 -5049338#0 16230969#1 16230969#2 16230970#0 16230979 23187518#0 438894186#0 438894186#1 5049337#0 5049338#0"/>
    <taz id="poly_1232" edges="-23187518#6 -438894186#0 -4983971 23187518#0 23187665#0 438894186#0 4983971 737126633#0"/>
    <taz id="poly_1233" edges="-23187664#5 23187664#0 23187665#1 737126633#0"/>
    <taz id="poly_124" edges="-22898240 -22899284#0 -22899284#1 -22899284#2 22898240 22899284#0 22899284#1 22899284#2"/>
    <taz id="poly_125" edges="-22898236#3 22898236#0"/>
    <taz id="poly_126" edges="-22898259 22898259"/>
    <taz id="poly_1263" edges="-24005744#2 -514905242#4 24005744#0 514905242#0"/>
    <taz id="poly_1264" edges="-102191419#0 -135177380#2 -135177380#4 -17088606#7 -4999212#1 -514905241#2 -514905242#4 -8170555#7 102191419#0 135177380#0 135177380#3 17088606#3 4999212#0 514905241#0 514905242#0 8170555#7"/>
    <taz id="poly_1265" edges="-135177380#2 -23361787#1 135177380#0 23361787#0"/>
    <taz id="poly_1266" edges="-322204869 14331145#0 24005766#0"/>
    <taz id="poly_1267" edges="-14331145#3 -14331145#7 -24037803#3 14331145#0 14331145#4 24037803#0"/>
    <taz id="poly_1268" edges="-14331141#12 -14331145#10 -14331145#8 -14331145#9 -24037824#2 -24572975#1 -98671799 14331141#9 14331142#1 14331145#10 14331145#8 14331145#9 24037824#0 24572975#0"/>
    <taz id="poly_1269" edges="-14331141#12 -14331145#10 -14331145#11 -14331145#13 -14331147#3 -24037824#2 14331141#9 14331145#10 14331145#11 14331145#12 14331147#0 24037824#0"/>
    <taz id="poly_127" edges="-221087501 -5058124#2 -5058124#3 221087501 5058124#0 5058124#3"/>
    <taz id="poly_1270" edges="-14331145#13 -14331145#15 -14331149 -14331150#2 -14331151#5 -462794060#2 -462794060#3 -4981997#0 14331145#12 14331145#14 14331149 14331150#0 14331151#0 462794060#0 462794060#3 4981997#0"/>
    <taz id="poly_1271" edges="-14331139#2 -14331151#5 -16873342 -17200084#1 -275980129#1 -279160075 -4981996#0 -590328266#2 -590328266#3 14331139#0 14331151#0 16873342 17200084#0 275980129#0 279160075 4981996#0 590328266#0 590328266#3"/>
    <taz id="poly_1272" edges="-15455696#4 -15455696#6 -15455698#1 -15455700#3 -17200084#1 -4981996#0 -4981996#2 -4981996#3 -4981996#4 -5045369#3 15455696#0 15455696#5 15455698#0 15455700#0 4981996#0 4981996#1 4981996#3 4981996#4 5045369#0"/>
    <taz id="poly_1273" edges="-15455692#6 -15455695#4 -6444923#3 15455692#0 15455695#3 191676959 191676959-AddedOnRampEdge 191676965 191839025 5079565#0 6444923#0"/>
    <taz id="poly_1274" edges="-23175316#1 -23175317 -5787612#6 -6444938#3 -6444938#4 -6444938#5 23175316#0 23175317 5787612#1 6444938#1 6444938#4 6444938#5"/>
    <taz id="poly_1275" edges="-11678133#14 -5787612#0 -5787612#6 -5787613#5 11678133#6 5787612#0 5787612#1 5787613#0"/>
    <taz id="poly_1276" edges="-11678133#14 -11678133#5 -16628864#1 -5077119#10 -5077119#6 -5077119#7 -5077119#9 -5787613#5 -8602360#12 -8602362#3 11678133#0 11678133#6 16628864#0 5077119#10 5077119#3 5077119#7 5077119#8 5787613#0 8602360#9 8602362#1"/>
    <taz id="poly_1277" edges="-8602362#3 -9930563#1 -9930563#5 -9930564#1 8602362#1 9930563#0 9930563#2 9930564#0"/>
    <taz id="poly_1278" edges="-32675980#4 -500069632 -55382833 -8067335#2 -9930562#3 -9930562#4 -9930564#1 32675980#1 500069632 55382833 8067334 8067335#2 9930562#3 9930562#4 9930564#0"/>
    <taz id="poly_1279" edges="-5049335#1 -5049335#2 -5049335#4 -55382833 -55606032#3 -7925311#1 -8051691#5 -8051692#5 -8051692#6 5049335#1 5049335#2 5049335#3 55382833 55606032#1 5637657#0 5637657#1 5637657#2 5637657#3 5637657#4 7925311#0 8051691#4 8051692#5 8051692#6 8067334"/>
    <taz id="poly_1280" edges="-5049335#4 -8051691#3 -8051691#5 -95323920#2 5049335#3 8051691#3 8051691#4 95323920#0"/>
    <taz id="poly_1281" edges="-23192908#1 -55606033#6 -609127521 -744766144 23192908#0 4998653 55606033#5 609127521 744766144"/>
    <taz id="poly_1282" edges="-114102321#4 -4998653 -609127526#1 -609127526#3 -8034293#1 114102321#4 23192909#0 23192910#0 4998653 5215971#2 609127514 609127526#0 609127526#2 8034293#1"/>
    <taz id="poly_1283" edges="-5215970#3 -8034293#0 -8034295#0 -8034295#1 -8034297#2 -8034297#3 -8034297#4 -8034657 23192910#0 23192910#1 320772146#0 320772146#1 5215970#3 5215971#0 5215971#1 5215971#2 8034293#0 8034295#0 8034295#1 8034297#0 8034297#3 8034297#4 8034657"/>
    <taz id="poly_1284" edges="-26129319 -8067685#5 -8096504#13 10273976#0 10273976#1 26129319 320772147 320772149 320772150 5215936#0 5215936#3 5215971#0 8067685#1 8067685#5 8096504#0"/>
    <taz id="poly_1285" edges="-10273974#4 -23860613#3 -26129319 -320772148 10273974#4 10273976#0 23860613#3 26129319 320772147 320772148 5155829#3 5155829#5 5155829#9"/>
    <taz id="poly_1286" edges="-8067676#12 8067676#3"/>
    <taz id="poly_1287" edges="-10366834#0 -25312349 -25312350#0 -25312350#1 -25312350#2 -25312350#5 -5154968#5 -5154968#7 -8067676#12 -8067676#2 -9649385 10366834#0 190309448#2 25312349 25312350#0 25312350#1 25312350#2 25312350#3 290003278 5154968#5 5154968#6 682854403 8067676#0 8067676#3 9649385"/>
    <taz id="poly_1288" edges="-10366837#2 -110676368 -122054063#2 -190309448#4 -25312350#5 -25312350#8 -389279953 -5154969#1 -8067679#4 10366837#0 10366841#0 122054063#1 190309448#2 25312350#3 25312350#7 5049361#6 505070072#0 5154969#0 8067679#0"/>
    <taz id="poly_1289" edges="-10270718#2 -10270718#5 -10273979 -10273980 -10366841#3 -122054058#0 -122054063#0 -122054063#2 -126053055#2 -8067680#2 -8067680#3 -8067680#4 -8067680#6 -8067682#0 -8067682#1 10270718#2 10270718#3 10273979 10273980 10366841#0 122054058#0 122054058#1 122054063#1 126053055#0 34572918#0 8067680#2 8067680#3 8067680#4 8067680#5 8067682#0 8067682#1"/>
    <taz id="poly_129" edges="-23436733#1 23436733#0"/>
    <taz id="poly_1290" edges="-19532809#2 -389279945#0 -4983967#14 -4983967#16 -4983967#9 -724402413#1 -8067666#4 -9649391#3 10309167 19532809#0 389279945#0 4983967#10 4983967#15 4983967#7 724402413#0 8067666#2 9649391#0"/>