<additional xmlns:xsi="http://www.w3.org/2001/XMLSchema-instance" xsi:noNamespaceSchemaLocation="http://sumo.dlr.de/xsd/additional_file.xsd">
<poly id="poly_0" color="255,0,0,100" fill="1" layer="128.00" shape="0,0 200,0 200,200 0,200"/>
<poly id="poly_1" color="255,0,0,100" fill="1" layer="128.00" shape="0,200 200,200 200,400 0,400"/>
<poly id="poly_2" color="255,0,0,100" fill="1" layer="128.00" shape="0,400 200,400 200,600 0,600"/>
<poly id="poly_3" color="255,0,0,100" fill="1" layer="128.00" shape="0,600 200,600 200,800 0,800"/>
<poly id="poly_4" color="255,0,0,100" fill="1" layer="128.00" shape="0,800 200,800 200,1000 0,1000"/>
<poly id="poly_5" color="255,0,0,100" fill="1" layer="128.00" shape="0,1000 200,1000 200,1200 0,1200"/>
<poly id="poly_6" color="255,0,0,100" fill="1" layer="128.00" shape="0,1200 200,1200 200,1400 0,1400"/>
<poly id="poly_7" color="255,0,0,100" fill="1" layer="128.00" shape="0,1400 200,1400 200,1600 0,1600"/>
<poly id="poly_8" color="255,0,0,100" fill="1" layer="128.00" shape="0,1600 200,1600 200,1800 0,1800"/>
<poly id="poly_9" color="255,0,0,100" fill="1" layer="128.00" shape="0,1800 200,1800 200,2000 0,2000"/>
<poly id="poly_10" color="255,0,0,100" fill="1" layer="128.00" shape="0,2000 200,2000 200,2200 0,2200"/>
<poly id="poly_11" color="255,0,0,100" fill="1" layer="128.00" shape="0,2200 200,2200 200,2400 0,2400"/>
<poly id="poly_12" color="255,0,0,100" fill="1" layer="128.00" shape="0,2400 200,2400 200,2600 0,2600"/>
<poly id="poly_13" color="255,0,0,100" fill="1" layer="128.00" shape="0,2600 200,2600 200,2800 0,2800"/>
<poly id="poly_14" color="255,0,0,100" fill="1" layer="128.00" shape="0,2800 200,2800 200,3000 0,3000"/>
<poly id="poly_15" color="255,0,0,100" fill="1" layer="128.00" shape="0,3000 200,3000 200,3200 0,3200"/>
<poly id="poly_16" color="255,0,0,100" fill="1" layer="128.00" shape="200,0 400,0 400,200 200,200"/>
<poly id="poly_17" color="255,0,0,100" fill="1" layer="128.00" shape="200,200 400,200 400,400 200,400"/>
<poly id="poly_18" color="255,0,0,100" fill="1" layer="128.00" shape="200,400 400,400 400,600 200,600"/>
<poly id="poly_19" color="255,0,0,100" fill="1" layer="128.00" shape="200,600 400,600 400,800 200,800"/>
<poly id="poly_20" color="255,0,0,100" fill="1" layer="128.00" shape="200,800 400,800 400,1000 200,1000"/>
<poly id="poly_21" color="255,0,0,100" fill="1" layer="128.00" shape="200,1000 400,1000 400,1200 200,1200"/>
<poly id="poly_22" color="255,0,0,100" fill="1" layer="128.00" shape="200,1200 400,1200 400,1400 200,1400"/>
<poly id="poly_23" color="255,0,0,100" fill="1" layer="128.00" shape="200,1400 400,1400 400,1600 200,1600"/>
<poly id="poly_24" color="255,0,0,100" fill="1" layer="128.00" shape="200,1600 400,1600 400,1800 200,1800"/>
<poly id="poly_25" color="255,0,0,100" fill="1" layer="128.00" shape="200,1800 400,1800 400,2000 200,2000"/>
<poly id="poly_26" color="255,0,0,100" fill="1" layer="128.00" shape="200,2000 400,2000 400,2200 200,2200"/>
<poly id="poly_27" color="255,0,0,100" fill="1" layer="128.00" shape="200,2200 400,2200 400,2400 200,2400"/>
<poly id="poly_28" color="255,0,0,100" fill="1" layer="128.00" shape="200,2400 400,2400 400,2600 200,2600"/>
<poly id="poly_29" color="255,0,0,100" fill="1" layer="128.00" shape="200,2600 400,2600 400,2800 200,2800"/>
<poly id="poly_30" color="255,0,0,100" fill="1" layer="128.00" shape="200,2800 400,2800 400,3000 200,3000"/>
<poly id="poly_31" color="255,0,0,100" fill="1" layer="128.00" shape="200,3000 400,3000 400,3200 200,3200"/>
<poly id="poly_32" color="255,0,0,100" fill="1" layer="128.00" shape="400,0 600,0 600,200 400,200"/>
<poly id="poly_33" color="255,0,0,100" fill="1" layer="128.00" shape="400,200 600,200 600,400 400,400"/>
<poly id="poly_34" color="255,0,0,100" fill="1" layer="128.00" shape="400,400 600,400 600,600 400,600"/>
<poly id="poly_35" color="255,0,0,100" fill="1" layer="128.00" shape="400,600 600,600 600,800 400,800"/>
<poly id="poly_36" color="255,0,0,100" fill="1" layer="128.00" shape="400,800 600,800 600,1000 400,1000"/>
<poly id="poly_37" color="255,0,0,100" fill="1" layer="128.00" shape="400,1000 600,1000 600,1200 400,1200"/>
<poly id="poly_38" color="255,0,0,100" fill="1" layer="128.00" shape="400,1200 600,1200 600,1400 400,1400"/>
<poly id="poly_39" color="255,0,0,100" fill="1" layer="128.00" shape="400,1400 600,1400 600,1600 400,1600"/>
<poly id="poly_40" color="255,0,0,100" fill="1" layer="128.00" shape="400,1600 600,1600 600,1800 400,1800"/>
<poly id="poly_41" color="255,0,0,100" fill="1" layer="128.00" shape="400,1800 600,1800 600,2000 400,2000"/>
<poly id="poly_42" color="255,0,0,100" fill="1" layer="128.00" shape="400,2000 600,2000 600,2200 400,2200"/>
<poly id="poly_43" color="255,0,0,100" fill="1" layer="128.00" shape="400,2200 600,2200 600,2400 400,2400"/>
<poly id="poly_44" color="255,0,0,100" fill="1" layer="128.00" shape="400,2400 600,2400 600,2600 400,2600"/>
<poly id="poly_45" color="255,0,0,100" fill="1" layer="128.00" shape="400,2600 600,2600 600,2800 400,2800"/>
<poly id="poly_46" color="255,0,0,100" fill="1" layer="128.00" shape="400,2800 600,2800 600,3000 400,3000"/>
<poly id="poly_47" color="255,0,0,100" fill="1" layer="128.00" shape="400,3000 600,3000 600,3200 400,3200"/>
<poly id="poly_48" color="255,0,0,100" fill="1" layer="128.00" shape="600,0 800,0 800,200 600,200"/>
<poly id="poly_49" color="255,0,0,100" fill="1" layer="128.00" shape="600,200 800,200 800,400 600,400"/>
<poly id="poly_50" color="255,0,0,100" fill="1" layer="128.00" shape="600,400 800,400 800,600 600,600"/>
<poly id="poly_51" color="255,0,0,100" fill="1" layer="128.00" shape="600,600 800,600 800,800 600,800"/>
<poly id="poly_52" color="255,0,0,100" fill="1" layer="128.00" shape="600,800 800,800 800,1000 600,1000"/>
<poly id="poly_53" color="255,0,0,100" fill="1" layer="128.00" shape="600,1000 800,1000 800,1200 600,1200"/>
<poly id="poly_54" color="255,0,0,100" fill="1" layer="128.00" shape="600,1200 800,1200 800,1400 600,1400"/>
<poly id="poly_55" color="255,0,0,100" fill="1" layer="128.00" shape="600,1400 800,1400 800,1600 600,1600"/>
<poly id="poly_56" color="255,0,0,100" fill="1" layer="128.00" shape="600,1600 800,1600 800,1800 600,1800"/>
<poly id="poly_57" color="255,0,0,100" fill="1" layer="128.00" shape="600,1800 800,1800 800,2000 600,2000"/>
<poly id="poly_58" color="255,0,0,100" fill="1" layer="128.00" shape="600,2000 800,2000 800,2200 600,2200"/>
<poly id="poly_59" color="255,0,0,100" fill="1" layer="128.00" shape="600,2200 800,2200 800,2400 600,2400"/>
<poly id="poly_60" color="255,0,0,100" fill="1" layer="128.00" shape="600,2400 800,2400 800,2600 600,2600"/>
<poly id="poly_61" color="255,0,0,100" fill="1" layer="128.00" shape="600,2600 800,2600 800,2800 600,2800"/>
<poly id="poly_62" color="255,0,0,100" fill="1" layer="128.00" shape="600,2800 800,2800 800,3000 600,3000"/>
<poly id="poly_63" color="255,0,0,100" fill="1" layer="128.00" shape="600,3000 800,3000 800,3200 600,3200"/>
<poly id="poly_64" color="255,0,0,100" fill="1" layer="128.00" shape="800,0 1000,0 1000,200 800,200"/>
<poly id="poly_65" color="255,0,0,100" fill="1" layer="128.00" shape="800,200 1000,200 1000,400 800,400"/>
<poly id="poly_66" color="255,0,0,100" fill="1" layer="128.00" shape="800,400 1000,400 1000,600 800,600"/>
<poly id="poly_67" color="255,0,0,100" fill="1" layer="128.00" shape="800,600 1000,600 1000,800 800,800"/>
<poly id="poly_68" color="255,0,0,100" fill="1" layer="128.00" shape="800,800 1000,800 1000,1000 800,1000"/>
<poly id="poly_69" color="255,0,0,100" fill="1" layer="128.00" shape="800,1000 1000,1000 1000,1200 800,1200"/>
<poly id="poly_70" color="255,0,0,100" fill="1" layer="128.00" shape="800,1200 1000,1200 1000,1400 800,1400"/>
<poly id="poly_71" color="255,0,0,100" fill="1" layer="128.00" shape="800,1400 1000,1400 1000,1600 800,1600"/>
<poly id="poly_72" color="255,0,0,100" fill="1" layer="128.00" shape="800,1600 1000,1600 1000,1800 800,1800"/>
<poly id="poly_73" color="255,0,0,100" fill="1" layer="128.00" shape="800,1800 1000,1800 1000,2000 800,2000"/>
<poly id="poly_74" color="255,0,0,100" fill="1" layer="128.00" shape="800,2000 1000,2000 1000,2200 800,2200"/>
<poly id="poly_75" color="255,0,0,100" fill="1" layer="128.00" shape="800,2200 1000,2200 1000,2400 800,2400"/>
<poly id="poly_76" color="255,0,0,100" fill="1" layer="128.00" shape="800,2400 1000,2400 1000,2600 800,2600"/>
<poly id="poly_77" color="255,0,0,100" fill="1" layer="128.00" shape="800,2600 1000,2600 1000,2800 800,2800"/>
<poly id="poly_78" color="255,0,0,100" fill="1" layer="128.00" shape="800,2800 1000,2800 1000,3000 800,3000"/>
<poly id="poly_79" color="255,0,0,100" fill="1" layer="128.00" shape="800,3000 1000,3000 1000,3200 800,3200"/>
<poly id="poly_80" color="255,0,0,100" fill="1" layer="128.00" shape="1000,0 1200,0 1200,200 1000,200"/>
<poly id="poly_81" color="255,0,0,100" fill="1" layer="128.00" shape="1000,200 1200,200 1200,400 1000,400"/>
<poly id="poly_82" color="255,0,0,100" fill="1" layer="128.00" shape="1000,400 1200,400 1200,600 1000,600"/>
<poly id="poly_83" color="255,0,0,100" fill="1" layer="128.00" shape="1000,600 1200,600 1200,800 1000,800"/>
<poly id="poly_84" color="255,0,0,100" fill="1" layer="128.00" shape="1000,800 1200,800 1200,1000 1000,1000"/>
<poly id="poly_85" color="255,0,0,100" fill="1" layer="128.00" shape="1000,1000 1200,1000 1200,1200 1000,1200"/>
<poly id="poly_86" color="255,0,0,100" fill="1" layer="128.00" shape="1000,1200 1200,1200 1200,1400 1000,1400"/>
<poly id="poly_87" color="255,0,0,100" fill="1" layer="128.00" shape="1000,1400 1200,1400 1200,1600 1000,1600"/>
<poly id="poly_88" color="255,0,0,100" fill="1" layer="128.00" shape="1000,1600 1200,1600 1200,1800 1000,1800"/>
<poly id="poly_89" color="255,0,0,100" fill="1" layer="128.00" shape="1000,1800 1200,1800 1200,2000 1000,2000"/>
<poly id="poly_90" color="255,0,0,100" fill="1" layer="128.00" shape="1000,2000 1200,2000 1200,2200 1000,2200"/>
<poly id="poly_91" color="255,0,0,100" fill="1" layer="128.00" shape="1000,2200 1200,2200 1200,2400 1000,2400"/>
<poly id="poly_92" color="255,0,0,100" fill="1" layer="128.00" shape="1000,2400 1200,2400 1200,2600 1000,2600"/>
<poly id="poly_93" color="255,0,0,100" fill="1" layer="128.00" shape="1000,2600 1200,2600 1200,2800 1000,2800"/>
<poly id="poly_94" color="255,0,0,100" fill="1" layer="128.00" shape="1000,2800 1200,2800 1200,3000 1000,3000"/>
<poly id="poly_95" color="255,0,0,100" fill="1" layer="128.00" shape="1000,3000 1200,3000 1200,3200 1000,3200"/>
<poly id="poly_96" color="255,0,0,100" fill="1" layer="128.00" shape="1200,0 1400,0 1400,200 1200,200"/>
<poly id="poly_97" color="255,0,0,100" fill="1" layer="128.00" shape="1200,200 1400,200 1400,400 1200,400"/>
<poly id="poly_98" color="255,0,0,100" fill="1" layer="128.00" shape="1200,400 1400,400 1400,600 1200,600"/>
<poly id="poly_99" color="255,0,0,100" fill="1" layer="128.00" shape="1200,600 1400,600 1400,800 1200,800"/>
<poly id="poly_100" color="255,0,0,100" fill="1" layer="128.00" shape="1200,800 1400,800 1400,1000 1200,1000"/>
<poly id="poly_101" color="255,0,0,100" fill="1" layer="128.00" shape="1200,1000 1400,1000 1400,1200 1200,1200"/>
<poly id="poly_102" color="255,0,0,100" fill="1" layer="128.00" shape="1200,1200 1400,1200 1400,1400 1200,1400"/>
<poly id="poly_103" color="255,0,0,100" fill="1" layer="128.00" shape="1200,1400 1400,1400 1400,1600 1200,1600"/>
<poly id="poly_104" color="255,0,0,100" fill="1" layer="128.00" shape="1200,1600 1400,1600 1400,1800 1200,1800"/>
<poly id="poly_105" color="255,0,0,100" fill="1" layer="128.00" shape="1200,1800 1400,1800 1400,2000 1200,2000"/>
<poly id="poly_106" color="255,0,0,100" fill="1" layer="128.00" shape="1200,2000 1400,2000 1400,2200 1200,2200"/>
<poly id="poly_107" color="255,0,0,100" fill="1" layer="128.00" shape="1200,2200 1400,2200 1400,2400 1200,2400"/>
<poly id="poly_108" color="255,0,0,100" fill="1" layer="128.00" shape="1200,2400 1400,2400 1400,2600 1200,2600"/>
<poly id="poly_109" color="255,0,0,100" fill="1" layer="128.00" shape="1200,2600 1400,2600 1400,2800 1200,2800"/>
<poly id="poly_110" color="255,0,0,100" fill="1" layer="128.00" shape="1200,2800 1400,2800 1400,3000 1200,3000"/>
<poly id="poly_111" color="255,0,0,100" fill="1" layer="128.00" shape="1200,3000 1400,3000 1400,3200 1200,3200"/>
<poly id="poly_112" color="255,0,0,100" fill="1" layer="128.00" shape="1400,0 1600,0 1600,200 1400,200"/>
<poly id="poly_113" color="255,0,0,100" fill="1" layer="128.00" shape="1400,200 1600,200 1600,400 1400,400"/>
<poly id="poly_114" color="255,0,0,100" fill="1" layer="128.00" shape="1400,400 1600,400 1600,600 1400,600"/>
<poly id="poly_115" color="255,0,0,100" fill="1" layer="128.00" shape="1400,600 1600,600 1600,800 1400,800"/>
<poly id="poly_116" color="255,0,0,100" fill="1" layer="128.00" shape="1400,800 1600,800 1600,1000 1400,1000"/>
<poly id="poly_117" color="255,0,0,100" fill="1" layer="128.00" shape="1400,1000 1600,1000 1600,1200 1400,1200"/>
<poly id="poly_118" color="255,0,0,100" fill="1" layer="128.00" shape="1400,1200 1600,1200 1600,1400 1400,1400"/>
<poly id="poly_119" color="255,0,0,100" fill="1" layer="128.00" shape="1400,1400 1600,1400 1600,1600 1400,1600"/>
<poly id="poly_120" color="255,0,0,100" fill="1" layer="128.00" shape="1400,1600 1600,1600 1600,1800 1400,1800"/>
<poly id="poly_121" color="255,0,0,100" fill="1" layer="128.00" shape="1400,1800 1600,1800 1600,2000 1400,2000"/>
<poly id="poly_122" color="255,0,0,100" fill="1" layer="128.00" shape="1400,2000 1600,2000 1600,2200 1400,2200"/>
<poly id="poly_123" color="255,0,0,100" fill="1" layer="128.00" shape="1400,2200 1600,2200 1600,2400 1400,2400"/>
<poly id="poly_124" color="255,0,0,100" fill="1" layer="128.00" shape="1400,2400 1600,2400 1600,2600 1400,2600"/>
<poly id="poly_125" color="255,0,0,100" fill="1" layer="128.00" shape="1400,2600 1600,2600 1600,2800 1400,2800"/>
<poly id="poly_126" color="255,0,0,100" fill="1" layer="128.00" shape="1400,2800 1600,2800 1600,3000 1400,3000"/>
<poly id="poly_127" color="255,0,0,100" fill="1" layer="128.00" shape="1400,3000 1600,3000 1600,3200 1400,3200"/>
<poly id="poly_128" color="255,0,0,100" fill="1" layer="128.00" shape="1600,0 1800,0 1800,200 1600,200"/>
<poly id="poly_129" color="255,0,0,100" fill="1" layer="128.00" shape="1600,200 1800,200 1800,400 1600,400"/>
<poly id="poly_130" color="255,0,0,100" fill="1" layer="128.00" shape="1600,400 1800,400 1800,600 1600,600"/>
<poly id="poly_131" color="255,0,0,100" fill="1" layer="128.00" shape="1600,600 1800,600 1800,800 1600,800"/>
<poly id="poly_132" color="255,0,0,100" fill="1" layer="128.00" shape="1600,800 1800,800 1800,1000 1600,1000"/>
<poly id="poly_133" color="255,0,0,100" fill="1" layer="128.00" shape="1600,1000 1800,1000 1800,1200 1600,1200"/>
<poly id="poly_134" color="255,0,0,100" fill="1" layer="128.00" shape="1600,1200 1800,1200 1800,1400 1600,1400"/>
<poly id="poly_135" color="255,0,0,100" fill="1" layer="128.00" shape="1600,1400 1800,1400 1800,1600 1600,1600"/>
<poly id="poly_136" color="255,0,0,100" fill="1" layer="128.00" shape="1600,1600 1800,1600 1800,1800 1600,1800"/>
<poly id="poly_137" color="255,0,0,100" fill="1" layer="128.00" shape="1600,1800 1800,1800 1800,2000 1600,2000"/>
<poly id="poly_138" color="255,0,0,100" fill="1" layer="128.00" shape="1600,2000 1800,2000 1800,2200 1600,2200"/>
<poly id="poly_139" color="255,0,0,100" fill="1" layer="128.00" shape="1600,2200 1800,2200 1800,2400 1600,2400"/>
<poly id="poly_140" color="255,0,0,100" fill="1" layer="128.00" shape="1600,2400 1800,2400 1800,2600 1600,2600"/>
<poly id="poly_141" color="255,0,0,100" fill="1" layer="128.00" shape="1600,2600 1800,2600 1800,2800 1600,2800"/>
<poly id="poly_142" color="255,0,0,100" fill="1" layer="128.00" shape="1600,2800 1800,2800 1800,3000 1600,3000"/>
<poly id="poly_143" color="255,0,0,100" fill="1" layer="128.00" shape="1600,3000 1800,3000 1800,3200 1600,3200"/>
<poly id="poly_144" color="255,0,0,100" fill="1" layer="128.00" shape="1800,0 2000,0 2000,200 1800,200"/>
<poly id="poly_145" color="255,0,0,100" fill="1" layer="128.00" shape="1800,200 2000,200 2000,400 1800,400"/>
<poly id="poly_146" color="255,0,0,100" fill="1" layer="128.00" shape="1800,400 2000,400 2000,600 1800,600"/>
<poly id="poly_147" color="255,0,0,100" fill="1" layer="128.00" shape="1800,600 2000,600 2000,800 1800,800"/>
<poly id="poly_148" color="255,0,0,100" fill="1" layer="128.00" shape="1800,800 2000,800 2000,1000 1800,1000"/>
<poly id="poly_149" color="255,0,0,100" fill="1" layer="128.00" shape="1800,1000 2000,1000 2000,1200 1800,1200"/>
<poly id="poly_150" color="255,0,0,100" fill="1" layer="128.00" shape="1800,1200 2000,1200 2000,1400 1800,1400"/>
<poly id="poly_151" color="255,0,0,100" fill="1" layer="128.00" shape="1800,1400 2000,1400 2000,1600 1800,1600"/>
<poly id="poly_152" color="255,0,0,100" fill="1" layer="128.00" shape="1800,1600 2000,1600 2000,1800 1800,1800"/>
<poly id="poly_153" color="255,0,0,100" fill="1" layer="128.00" shape="1800,1800 2000,1800 2000,2000 1800,2000"/>
<poly id="poly_154" color="255,0,0,100" fill="1" layer="128.00" shape="1800,2000 2000,2000 2000,2200 1800,2200"/>
<poly id="poly_155" color="255,0,0,100" fill="1" layer="128.00" shape="1800,2200 2000,2200 2000,2400 1800,2400"/>
<poly id="poly_156" color="255,0,0,100" fill="1" layer="128.00" shape="1800,2400 2000,2400 2000,2600 1800,2600"/>
<poly id="poly_157" color="255,0,0,100" fill="1" layer="128.00" shape="1800,2600 2000,2600 2000,2800 1800,2800"/>
<poly id="poly_158" color="255,0,0,100" fill="1" layer="128.00" shape="1800,2800 2000,2800 2000,3000 1800,3000"/>
<poly id="poly_159" color="255,0,0,100" fill="1" layer="128.00" shape="1800,3000 2000,3000 2000,3200 1800,3200"/>
<poly id="poly_160" color="255,0,0,100" fill="1" layer="128.00" shape="2000,0 2200,0 2200,200 2000,200"/>
<poly id="poly_161" color="255,0,0,100" fill="1" layer="128.00" shape="2000,200 2200,200 2200,400 2000,400"/>
<poly id="poly_162" color="255,0,0,100" fill="1" layer="128.00" shape="2000,400 2200,400 2200,600 2000,600"/>
<poly id="poly_163" color="255,0,0,100" fill="1" layer="128.00" shape="2000,600 2200,600 2200,800 2000,800"/>
<poly id="poly_164" color="255,0,0,100" fill="1" layer="128.00" shape="2000,800 2200,800 2200,1000 2000,1000"/>
<poly id="poly_165" color="255,0,0,100" fill="1" layer="128.00" shape="2000,1000 2200,1000 2200,1200 2000,1200"/>
<poly id="poly_166" color="255,0,0,100" fill="1" layer="128.00" shape="2000,1200 2200,1200 2200,1400 2000,1400"/>
<poly id="poly_167" color="255,0,0,100" fill="1" layer="128.00" shape="2000,1400 2200,1400 2200,1600 2000,1600"/>
<poly id="poly_168" color="255,0,0,100" fill="1" layer="128.00" shape="2000,1600 2200,1600 2200,1800 2000,1800"/>
<poly id="poly_169" color="255,0,0,100" fill="1" layer="128.00" shape="2000,1800 2200,1800 2200,2000 2000,2000"/>
<poly id="poly_170" color="255,0,0,100" fill="1" layer="128.00" shape="2000,2000 2200,2000 2200,2200 2000,2200"/>
<poly id="poly_171" color="255,0,0,100" fill="1" layer="128.00" shape="2000,2200 2200,2200 2200,2400 2000,2400"/>
<poly id="poly_172" color="255,0,0,100" fill="1" layer="128.00" shape="2000,2400 2200,2400 2200,2600 2000,2600"/>
<poly id="poly_173" color="255,0,0,100" fill="1" layer="128.00" shape="2000,2600 2200,2600 2200,2800 2000,2800"/>
<poly id="poly_174" color="255,0,0,100" fill="1" layer="128.00" shape="2000,2800 2200,2800 2200,3000 2000,3000"/>
<poly id="poly_175" color="255,0,0,100" fill="1" layer="128.00" shape="2000,3000 2200,3000 2200,3200 2000,3200"/>
<poly id="poly_176" color="255,0,0,100" fill="1" layer="128.00" shape="2200,0 2400,0 2400,200 2200,200"/>
<poly id="poly_177" color="255,0,0,100" fill="1" layer="128.00" shape="2200,200 2400,200 2400,400 2200,400"/>
<poly id="poly_178" color="255,0,0,100" fill="1" layer="128.00" shape="2200,400 2400,400 2400,600 2200,600"/>
<poly id="poly_179" color="255,0,0,100" fill="1" layer="128.00" shape="2200,600 2400,600 2400,800 2200,800"/>
<poly id="poly_180" color="255,0,0,100" fill="1" layer="128.00" shape="2200,800 2400,800 2400,1000 2200,1000"/>
<poly id="poly_181" color="255,0,0,100" fill="1" layer="128.00" shape="2200,1000 2400,1000 2400,1200 2200,1200"/>
<poly id="poly_182" color="255,0,0,100" fill="1" layer="128.00" shape="2200,1200 2400,1200 2400,1400 2200,1400"/>
<poly id="poly_183" color="255,0,0,100" fill="1" layer="128.00" shape="2200,1400 2400,1400 2400,1600 2200,1600"/>
<poly id="poly_184" color="255,0,0,100" fill="1" layer="128.00" shape="2200,1600 2400,1600 2400,1800 2200,1800"/>
<poly id="poly_185" color="255,0,0,100" fill="1" layer="128.00" shape="2200,1800 2400,1800 2400,2000 2200,2000"/>
<poly id="poly_186" color="255,0,0,100" fill="1" layer="128.00" shape="2200,2000 2400,2000 2400,2200 2200,2200"/>
<poly id="poly_187" color="255,0,0,100" fill="1" layer="128.00" shape="2200,2200 2400,2200 2400,2400 2200,2400"/>
<poly id="poly_188" color="255,0,0,100" fill="1" layer="128.00" shape="2200,2400 2400,2400 2400,2600 2200,2600"/>
<poly id="poly_189" color="255,0,0,100" fill="1" layer="128.00" shape="2200,2600 2400,2600 2400,2800 2200,2800"/>
<poly id="poly_190" color="255,0,0,100" fill="1" layer="128.00" shape="2200,2800 2400,2800 2400,3000 2200,3000"/>
<poly id="poly_191" color="255,0,0,100" fill="1" layer="128.00" shape="2200,3000 2400,3000 2400,3200 2200,3200"/>
<poly id="poly_192" color="255,0,0,100" fill="1" layer="128.00" shape="2400,0 2600,0 2600,200 2400,200"/>
<poly id="poly_193" color="255,0,0,100" fill="1" layer="128.00" shape="2400,200 2600,200 2600,400 2400,400"/>
<poly id="poly_194" color="255,0,0,100" fill="1" layer="128.00" shape="2400,400 2600,400 2600,600 2400,600"/>
<poly id="poly_195" color="255,0,0,100" fill="1" layer="128.00" shape="2400,600 2600,600 2600,800 2400,800"/>
<poly id="poly_196" color="255,0,0,100" fill="1" layer="128.00" shape="2400,800 2600,800 2600,1000 2400,1000"/>
<poly id="poly_197" color="255,0,0,100" fill="1" layer="128.00" shape="2400,1000 2600,1000 2600,1200 2400,1200"/>
<poly id="poly_198" color="255,0,0,100" fill="1" layer="128.00" shape="2400,1200 2600,1200 2600,1400 2400,1400"/>
<poly id="poly_199" color="255,0,0,100" fill="1" layer="128.00" shape="2400,1400 2600,1400 2600,1600 2400,1600"/>
<poly id="poly_200" color="255,0,0,100" fill="1" layer="128.00" shape="2400,1600 2600,1600 2600,1800 2400,1800"/>
<poly id="poly_201" color="255,0,0,100" fill="1" layer="128.00" shape="2400,1800 2600,1800 2600,2000 2400,2000"/>
<poly id="poly_202" color="255,0,0,100" fill="1" layer="128.00" shape="2400,2000 2600,2000 2600,2200 2400,2200"/>
<poly id="poly_203" color="255,0,0,100" fill="1" layer="128.00" shape="2400,2200 2600,2200 2600,2400 2400,2400"/>
<poly id="poly_204" color="255,0,0,100" fill="1" layer="128.00" shape="2400,2400 2600,2400 2600,2600 2400,2600"/>
<poly id="poly_205" color="255,0,0,100" fill="1" layer="128.00" shape="2400,2600 2600,2600 2600,2800 2400,2800"/>
<poly id="poly_206" color="255,0,0,100" fill="1" layer="128.00" shape="2400,2800 2600,2800 2600,3000 2400,3000"/>
<poly id="poly_207" color="255,0,0,100" fill="1" layer="128.00" shape="2400,3000 2600,3000 2600,3200 2400,3200"/>
<poly id="poly_208" color="255,0,0,100" fill="1" layer="128.00" shape="2600,0 2800,0 2800,200 2600,200"/>
<poly id="poly_209" color="255,0,0,100" fill="1" layer="128.00" shape="2600,200 2800,200 2800,400 2600,400"/>
<poly id="poly_210" color="255,0,0,100" fill="1" layer="128.00" shape="2600,400 2800,400 2800,600 2600,600"/>
<poly id="poly_211" color="255,0,0,100" fill="1" layer="128.00" shape="2600,600 2800,600 2800,800 2600,800"/>
<poly id="poly_212" color="255,0,0,100" fill="1" layer="128.00" shape="2600,800 2800,800 2800,1000 2600,1000"/>
<poly id="poly_213" color="255,0,0,100" fill="1" layer="128.00" shape="2600,1000 2800,1000 2800,1200 2600,1200"/>
<poly id="poly_214" color="255,0,0,100" fill="1" layer="128.00" shape="2600,1200 2800,1200 2800,1400 2600,1400"/>
<poly id="poly_215" color="255,0,0,100" fill="1" layer="128.00" shape="2600,1400 2800,1400 2800,1600 2600,1600"/>
<poly id="poly_216" color="255,0,0,100" fill="1" layer="128.00" shape="2600,1600 2800,1600 2800,1800 2600,1800"/>
<poly id="poly_217" color="255,0,0,100" fill="1" layer="128.00" shape="2600,1800 2800,1800 2800,2000 2600,2000"/>
<poly id="poly_218" color="255,0,0,100" fill="1" layer="128.00" shape="2600,2000 2800,2000 2800,2200 2600,2200"/>
<poly id="poly_219" color="255,0,0,100" fill="1" layer="128.00" shape="2600,2200 2800,2200 2800,2400 2600,2400"/>
<poly id="poly_220" color="255,0,0,100" fill="1" layer="128.00" shape="2600,2400 2800,2400 2800,2600 2600,2600"/>
<poly id="poly_221" color="255,0,0,100" fill="1" layer="128.00" shape="2600,2600 2800,2600 2800,2800 2600,2800"/>
<poly id="poly_222" color="255,0,0,100" fill="1" layer="128.00" shape="2600,2800 2800,2800 2800,3000 2600,3000"/>
<poly id="poly_223" color="255,0,0,100" fill="1" layer="128.00" shape="2600,3000 2800,3000 2800,3200 2600,3200"/>
<poly id="poly_224" color="255,0,0,100" fill="1" layer="128.00" shape="2800,0 3000,0 3000,200 2800,200"/>
<poly id="poly_225" color="255,0,0,100" fill="1" layer="128.00" shape="2800,200 3000,200 3000,400 2800,400"/>
<poly id="poly_226" color="255,0,0,100" fill="1" layer="128.00" shape="2800,400 3000,400 3000,600 2800,600"/>
<poly id="poly_227" color="255,0,0,100" fill="1" layer="128.00" shape="2800,600 3000,600 3000,800 2800,800"/>
<poly id="poly_228" color="255,0,0,100" fill="1" layer="128.00" shape="2800,800 3000,800 3000,1000 2800,1000"/>
<poly id="poly_229" color="255,0,0,100" fill="1" layer="128.00" shape="2800,1000 3000,1000 3000,1200 2800,1200"/>
<poly id="poly_230" color="255,0,0,100" fill="1" layer="128.00" shape="2800,1200 3000,1200 3000,1400 2800,1400"/>
<poly id="poly_231" color="255,0,0,100" fill="1" layer="128.00" shape="2800,1400 3000,1400 3000,1600 2800,1600"/>
<poly id="poly_232" color="255,0,0,100" fill="1" layer="128.00" shape="2800,1600 3000,1600 3000,1800 2800,1800"/>
<poly id="poly_233" color="255,0,0,100" fill="1" layer="128.00" shape="2800,1800 3000,1800 3000,2000 2800,2000"/>
<poly id="poly_234" color="255,0,0,100" fill="1" layer="128.00" shape="2800,2000 3000,2000 3000,2200 2800,2200"/>
<poly id="poly_235" color="255,0,0,100" fill="1" layer="128.00" shape="2800,2200 3000,2200 3000,2400 2800,2400"/>
<poly id="poly_236" color="255,0,0,100" fill="1" layer="128.00" shape="2800,2400 3000,2400 3000,2600 2800,2600"/>
<poly id="poly_237" color="255,0,0,100" fill="1" layer="128.00" shape="2800,2600 3000,2600 3000,2800 2800,2800"/>
<poly id="poly_238" color="255,0,0,100" fill="1" layer="128.00" shape="2800,2800 3000,2800 3000,3000 2800,3000"/>
<poly id="poly_239" color="255,0,0,100" fill="1" layer="128.00" shape="2800,3000 3000,3000 3000,3200 2800,3200"/>
<poly id="poly_240" color="255,0,0,100" fill="1" layer="128.00" shape="3000,0 3200,0 3200,200 3000,200"/>
<poly id="poly_241" color="255,0,0,100" fill="1" layer="128.00" shape="3000,200 3200,200 3200,400 3000,400"/>
<poly id="poly_242" color="255,0,0,100" fill="1" layer="128.00" shape="3000,400 3200,400 3200,600 3000,600"/>
<poly id="poly_243" color="255,0,0,100" fill="1" layer="128.00" shape="3000,600 3200,600 3200,800 3000,800"/>
<poly id="poly_244" color="255,0,0,100" fill="1" layer="128.00" shape="3000,800 3200,800 3200,1000 3000,1000"/>
<poly id="poly_245" color="255,0,0,100" fill="1" layer="128.00" shape="3000,1000 3200,1000 3200,1200 3000,1200"/>
<poly id="poly_246" color="255,0,0,100" fill="1" layer="128.00" shape="3000,1200 3200,1200 3200,1400 3000,1400"/>
<poly id="poly_247" color="255,0,0,100" fill="1" layer="128.00" shape="3000,1400 3200,1400 3200,1600 3000,1600"/>
<poly id="poly_248" color="255,0,0,100" fill="1" layer="128.00" shape="3000,1600 3200,1600 3200,1800 3000,1800"/>
<poly id="poly_249" color="255,0,0,100" fill="1" layer="128.00" shape="3000,1800 3200,1800 3200,2000 3000,2000"/>
<poly id="poly_250" color="255,0,0,100" fill="1" layer="128.00" shape="3000,2000 3200,2000 3200,2200 3000,2200"/>
<poly id="poly_251" color="255,0,0,100" fill="1" layer="128.00" shape="3000,2200 3200,2200 3200,2400 3000,2400"/>
<poly id="poly_252" color="255,0,0,100" fill="1" layer="128.00" shape="3000,2400 3200,2400 3200,2600 3000,2600"/>
<poly id="poly_253" color="255,0,0,100" fill="1" layer="128.00" shape="3000,2600 3200,2600 3200,2800 3000,2800"/>
<poly id="poly_254" color="255,0,0,100" fill="1" layer="128.00" shape="3000,2800 3200,2800 3200,3000 3000,3000"/>
<poly id="poly_255" color="255,0,0,100" fill="1" layer="128.00" shape="3000,3000 3200,3000 3200,3200 3000,3200"/>
<poly id="poly_256" color="255,0,0,100" fill="1" layer="128.00" shape="3200,0 3400,0 3400,200 3200,200"/>
<poly id="poly_257" color="255,0,0,100" fill="1" layer="128.00" shape="3200,200 3400,200 3400,400 3200,400"/>
<poly id="poly_258" color="255,0,0,100" fill="1" layer="128.00" shape="3200,400 3400,400 3400,600 3200,600"/>
<poly id="poly_259" color="255,0,0,100" fill="1" layer="128.00" shape="3200,600 3400,600 3400,800 3200,800"/>
<poly id="poly_260" color="255,0,0,100" fill="1" layer="128.00" shape="3200,800 3400,800 3400,1000 3200,1000"/>
<poly id="poly_261" color="255,0,0,100" fill="1" layer="128.00" shape="3200,1000 3400,1000 3400,1200 3200,1200"/>
<poly id="poly_262" color="255,0,0,100" fill="1" layer="128.00" shape="3200,1200 3400,1200 3400,1400 3200,1400"/>
<poly id="poly_263" color="255,0,0,100" fill="1" layer="128.00" shape="3200,1400 3400,1400 3400,1600 3200,1600"/>
<poly id="poly_264" color="255,0,0,100" fill="1" layer="128.00" shape="3200,1600 3400,1600 3400,1800 3200,1800"/>
<poly id="poly_265" color="255,0,0,100" fill="1" layer="128.00" shape="3200,1800 3400,1800 3400,2000 3200,2000"/>
<poly id="poly_266" color="255,0,0,100" fill="1" layer="128.00" shape="3200,2000 3400,2000 3400,2200 3200,2200"/>
<poly id="poly_267" color="255,0,0,100" fill="1" layer="128.00" shape="3200,2200 3400,2200 3400,2400 3200,2400"/>
<poly id="poly_268" color="255,0,0,100" fill="1" layer="128.00" shape="3200,2400 3400,2400 3400,2600 3200,2600"/>